geometry optimzed in LAMMPS
_audit_creation_date              2020-11-30 
_audit_creation_method            'lammps2cif' 
_symmetry_space_group_name_H-M    'P1' 
_symmetry_Int_Tables_number       1 
_symmetry_cell_setting            triclinic 
loop_ 
_symmetry_equiv_pos_as_xyz 
  x,y,z 
_cell_length_a                    49.888934498611846 
_cell_length_b                    48.804763148479466 
_cell_length_c                    39.91362860381121 
_cell_angle_alpha                 90.53449069370299 
_cell_angle_beta                  89.71332337477712 
_cell_angle_gamma                 90.6657523265751 
loop_ 
_atom_site_label 
_atom_site_type_symbol 
_atom_site_fract_x 
_atom_site_fract_y 
_atom_site_fract_z 
_atom_site_charge 
Zr1        Zr  0.59488860  0.60457245  0.35937589     2.17510
O2          O  0.57693177  0.58653719  0.30689504    -0.52170
O3          O  0.59828288  0.65237823  0.34409932    -0.75380
O4          O  0.54806111  0.61629595  0.35630610    -0.82160
O5          O  0.65389584  0.57094011  0.32720511    -0.83910
O6          O  0.53052528  0.61804334  0.40936661    -0.79530
O7          O  0.63021319  0.60802576  0.31523139    -0.91170
O8          O  0.62757474  0.67154577  0.38116490    -0.77130
O9          O  0.59035956  0.63226254  0.40893512    -0.86620
O10         O  0.63920792  0.61338788  0.37850957    -0.86310
O11         O  0.56961150  0.57782176  0.40012325    -0.73070
O12         O  0.61135192  0.55917226  0.36961922    -0.85200
Zr13       Zr  0.62880382  0.57071185  0.47713739     2.26420
Zr14       Zr  0.56548032  0.60619199  0.44971118     2.06270
Zr15       Zr  0.65586271  0.56874006  0.38753860     2.10050
Zr16       Zr  0.63505331  0.64072785  0.42700201     1.78760
O17         O  0.67043128  0.52451235  0.36592360    -0.94010
O18         O  0.61403649  0.68046999  0.45306027    -0.41810
O19         O  0.65366042  0.59664063  0.43679924    -0.78450
O20         O  0.61072165  0.61531290  0.46726591    -0.97130
O21         O  0.58370460  0.56196450  0.46110845    -0.90440
O22         O  0.63223407  0.54282453  0.42830142    -0.93280
C23         C  0.61324476  0.67214359  0.35464960     1.00470
C24         C  0.65068284  0.59262633  0.31007433     1.13400
C25         C  0.52863275  0.61923656  0.37719000     1.04180
O26         O  0.54399591  0.64871121  0.46659492    -0.95430
O27         O  0.57247567  0.61361276  0.51082105    -0.91180
O28         O  0.59588363  0.57596129  0.52163579    -0.84320
C29         C  0.58628971  0.59898479  0.53108586     1.10820
O30         O  0.55589597  0.51752896  0.37025200    -0.97410
Zr31       Zr  0.58758557  0.53363319  0.41260718     1.88940
O32         O  0.62474173  0.52334301  0.49548210    -0.74060
O33         O  0.52751872  0.57990051  0.47129563    -0.53320
O34         O  0.54518050  0.51973680  0.43818869    -0.98000
O35         O  0.60461874  0.49446915  0.38107938    -0.55220
O36         O  0.60132034  0.50008477  0.45535782    -0.74570
C37         C  0.61501128  0.50103820  0.48274320     0.97770
O38         O  0.65623467  0.59402568  0.51928947    -0.63390
O39         O  0.69920781  0.58960954  0.37402936    -0.58200
O40         O  0.67397311  0.55463395  0.47941739    -0.94880
O41         O  0.68893328  0.55337789  0.42524940    -0.93310
O42         O  0.67999113  0.65604326  0.41136805    -0.93660
O43         O  0.66274575  0.65722825  0.47335611    -0.92450
C44         C  0.69183258  0.55104892  0.45677994     1.16610
H45         H  0.65071878  0.62374068  0.36369548     0.32560
H46         H  0.61223114  0.62678815  0.48695196     0.43410
H47         H  0.64188443  0.52615319  0.43229644     0.36930
H48         H  0.55204399  0.57356146  0.39138688     0.33410
H49         H  0.62589093  0.69611161  0.44710054     0.25200
H50         H  0.51510401  0.59390199  0.48021440     0.31140
H51         H  0.54721020  0.50000233  0.44298529     0.37050
H52         H  0.67925717  0.67630389  0.41226365     0.31510
H53         H  0.70864955  0.57573048  0.36028674     0.30390
H54         H  0.68963445  0.52722254  0.36035111     0.32070
H55         H  0.59674591  0.47821522  0.39226735     0.31030
H56         H  0.65061028  0.65821600  0.49301448     0.35030
H57         H  0.67388906  0.59786163  0.50892406     0.27770
H58         H  0.56915524  0.60257311  0.29563105     0.32000
H59         H  0.55085857  0.49860675  0.37669840     0.34850
H60         H  0.69536084  0.60461292  0.35832683     0.27460
H61         H  0.64833511  0.61246334  0.52126426     0.40330
H62         H  0.55888092  0.66071948  0.47437201     0.30390
H63         H  0.59754066  0.68336865  0.43993215     0.38000
H64         H  0.62392393  0.49386609  0.38659567     0.29850
H65         H  0.51847561  0.57249524  0.45106692     0.29920
H66         H  0.56128496  0.57511178  0.31351758     0.30180
Zr67       Zr  0.89041134  0.60321341  0.57550297     2.17510
O68         O  0.90772925  0.58627473  0.62827094    -0.52170
O69         O  0.88495015  0.65109108  0.59121210    -0.75380
O70         O  0.93636782  0.61917342  0.58190936    -0.82160
O71         O  0.82158369  0.57384942  0.59827605    -0.83910
O72         O  0.95562258  0.62321610  0.53022809    -0.79530
O73         O  0.85485699  0.60094862  0.61956065    -0.91170
O74         O  0.85652153  0.66937922  0.55333456    -0.77130
O75         O  0.89393885  0.63268785  0.52820292    -0.86620
O76         O  0.84641704  0.60796307  0.55441826    -0.86310
O77         O  0.91905675  0.58004703  0.53507306    -0.73070
O78         O  0.87787998  0.55668468  0.56094001    -0.85200
Zr79       Zr  0.86401884  0.57038173  0.45278438     2.26420
Zr80       Zr  0.92247989  0.61037424  0.48798109     2.06270
Zr81       Zr  0.83344546  0.56223391  0.54086350     2.10050
Zr82       Zr  0.84924955  0.63699949  0.50827303     1.78760
O83         O  0.82747616  0.51951989  0.57111262    -0.94010
O84         O  0.86469307  0.67869202  0.48074058    -0.41810
O85         O  0.83442799  0.59179973  0.49292786    -0.78450
O86         O  0.87745594  0.61579688  0.46899125    -0.97130
O87         O  0.90891670  0.56497659  0.47086741    -0.90440
O88         O  0.86089822  0.54043300  0.49942060    -0.93280
C89         C  0.87063528  0.67064976  0.58001032     1.00470
C90         C  0.83141807  0.58931155  0.62145632     1.13400
C91         C  0.95646017  0.62402146  0.56243676     1.04180
O92         O  0.94338150  0.65471097  0.47691154    -0.95430
O93         O  0.91821906  0.62361312  0.42890015    -0.91180
O94         O  0.88594959  0.59519605  0.40728159    -0.84320
C95         C  0.90273214  0.61529045  0.40501935     1.10820
O96         O  0.93810004  0.52063248  0.55858368    -0.97410
Zr97       Zr  0.90507976  0.53487716  0.51758378     1.88940
O98         O  0.87387554  0.52453966  0.43238549    -0.74060
O99         O  0.96144067  0.58712215  0.46496691    -0.53320
O100        O  0.94804253  0.52565511  0.49073351    -0.98000
O101        O  0.89086246  0.49409652  0.54797596    -0.55220
O102        O  0.89262278  0.50023849  0.47409833    -0.74570
C103        C  0.88106556  0.50182000  0.44528097     0.97770
O104        O  0.84512455  0.57540222  0.39690097    -0.63390
O105        O  0.78582277  0.57284226  0.54219327    -0.58200
O106        O  0.81690473  0.55901361  0.45352027    -0.94880
O107        O  0.80942349  0.53515087  0.50098738    -0.93310
O108        O  0.80394033  0.64704980  0.52736157    -0.93660
O109        O  0.82068114  0.65047377  0.46206211    -0.92450
C110        C  0.80217670  0.54436562  0.47288218     1.16610
H111        H  0.83407166  0.61711303  0.56928533     0.32560
H112        H  0.87520847  0.62883174  0.45140763     0.43410
H113        H  0.85334745  0.52274108  0.49380109     0.36930
H114        H  0.93649984  0.57714506  0.54462851     0.33410
H115        H  0.85376704  0.69348043  0.49079340     0.25200
H116        H  0.97245458  0.60194825  0.45491720     0.31140
H117        H  0.94706774  0.50606403  0.48412914     0.37050
H118        H  0.80280040  0.66727757  0.52665526     0.31510
H119        H  0.77805657  0.56092968  0.55977496     0.30390
H120        H  0.80782387  0.51646801  0.57175282     0.32070
H121        H  0.89974163  0.47867578  0.53625608     0.31030
H122        H  0.82239265  0.63547993  0.44532661     0.35030
H123        H  0.83612221  0.55779032  0.39144302     0.27770
H124        H  0.91514677  0.60264400  0.63995461     0.32000
H125        H  0.94448782  0.50253235  0.55072586     0.34850
H126        H  0.78489952  0.59162226  0.55169323     0.27460
H127        H  0.83036603  0.58865107  0.39966700     0.40330
H128        H  0.93358736  0.66773995  0.49151432     0.30390
H129        H  0.88295343  0.68201380  0.48960537     0.38000
H130        H  0.87164058  0.49175401  0.54247203     0.29850
H131        H  0.97170863  0.58142235  0.48484001     0.29920
H132        H  0.92359012  0.57534418  0.62190633     0.30180
Zr133      Zr  0.85409633  0.63417378  0.11692393     2.17510
O134        O  0.83760345  0.64918157  0.06285321    -0.52170
O135        O  0.90146427  0.62960768  0.10352241    -0.75380
O136        O  0.86947777  0.68104759  0.10886626    -0.82160
O137        O  0.83163146  0.56132837  0.09748312    -0.83910
O138        O  0.87560759  0.69968104  0.16057773    -0.79530
O139        O  0.85546475  0.59664468  0.07466270    -0.91170
O140        O  0.92057526  0.60713587  0.14680257    -0.77130
O141        O  0.88095657  0.64100185  0.16576588    -0.86620
O142        O  0.86004645  0.59056261  0.14147321    -0.86310
O143        O  0.82913325  0.66434677  0.15395984    -0.73070
O144        O  0.80885609  0.61922407  0.12933538    -0.85200
Zr145      Zr  0.81827634  0.61042356  0.23979877     2.26420
Zr146      Zr  0.85630295  0.67011410  0.20306788     2.06270
Zr147      Zr  0.81548916  0.57508995  0.15291067     2.10050
Zr148      Zr  0.88678965  0.59679768  0.18884092     1.78760
O149        O  0.77468683  0.56646349  0.12119575    -0.94010
O150        O  0.92458802  0.61558961  0.22035295    -0.41810
O151        O  0.84266292  0.58014636  0.20237863    -0.78450
O152        O  0.86297413  0.62547336  0.22582696    -0.97130
O153        O  0.81192024  0.65510510  0.21806322    -0.90440
O154        O  0.79134372  0.60415726  0.19081666    -0.93280
C155        C  0.92161385  0.61896630  0.11825667     1.00470
C156        C  0.84685016  0.57155467  0.07453562     1.13400
C157        C  0.87667512  0.70079017  0.12845326     1.04180
O158        O  0.89470353  0.69799433  0.22023494    -0.95430
O159        O  0.86737383  0.66952425  0.26258651    -0.91180
O160        O  0.84040224  0.63639390  0.28498476    -0.84320
C161        C  0.85894305  0.65489535  0.28718131     1.10820
O162        O  0.77205780  0.67930496  0.12472424    -0.97410
Zr163      Zr  0.78499877  0.64823199  0.16918323     1.88940
O164        O  0.77115868  0.61782858  0.25406887    -0.74060
O165        O  0.82862340  0.70942225  0.21677639    -0.53320
O166        O  0.77269403  0.69270793  0.19240903    -0.98000
O167        O  0.74706994  0.63064218  0.13692042    -0.55220
O168        O  0.74936686  0.63647734  0.21027252    -0.74570
C169        C  0.74952892  0.62491753  0.23922928     0.97770
O170        O  0.81727293  0.59578319  0.29811784    -0.63390
O171        O  0.82519218  0.52625323  0.15229553    -0.58200
O172        O  0.81399609  0.56111751  0.24297462    -0.94880
O173        O  0.79024354  0.55267917  0.19657970    -0.93310
O174        O  0.90057173  0.55138267  0.17019618    -0.93660
O175        O  0.89984180  0.56780614  0.23519143    -0.92450
C176        C  0.80166687  0.54468065  0.22301811     1.16610
H177        H  0.87045202  0.57804000  0.12807955     0.32560
H178        H  0.87504007  0.62440934  0.24445404     0.43410
H179        H  0.77398637  0.59606666  0.19515949     0.36930
H180        H  0.82670845  0.68188691  0.14347917     0.33410
H181        H  0.94046250  0.60598882  0.21127574     0.25200
H182        H  0.83879435  0.71948801  0.23431679     0.31140
H183        H  0.75313471  0.69133324  0.19649849     0.37050
H184        H  0.92037893  0.55252616  0.16890865     0.31510
H185        H  0.81602926  0.51862460  0.13228090     0.30390
H186        H  0.76858685  0.54804715  0.12839129     0.32070
H187        H  0.73123804  0.64010760  0.14633037     0.31030
H188        H  0.88484489  0.56918633  0.25144376     0.35030
H189        H  0.80072193  0.58466057  0.30075104     0.27770
H190        H  0.85394264  0.65322698  0.04952843     0.32000
H191        H  0.75379414  0.68552054  0.13062226     0.34850
H192        H  0.84456610  0.52509195  0.14705576     0.27460
H193        H  0.83204461  0.58251275  0.30012513     0.40330
H194        H  0.91038573  0.68616880  0.21603860     0.30390
H195        H  0.92663583  0.63463465  0.21231676     0.38000
H196        H  0.74482486  0.61140603  0.14417120     0.29850
H197        H  0.82996536  0.72126013  0.19680910     0.29920
H198        H  0.82950003  0.66728706  0.06730327     0.30180
Zr199      Zr  0.85810499  0.34775990  0.31425332     2.17510
O200        O  0.83744115  0.33406434  0.36703556    -0.52170
O201        O  0.90493140  0.34919545  0.33124816    -0.75380
O202        O  0.86591034  0.29918203  0.32340184    -0.82160
O203        O  0.84698538  0.42207064  0.32979239    -0.83910
O204        O  0.86510790  0.27802199  0.27231866    -0.79530
O205        O  0.86059456  0.38442567  0.35745197    -0.91170
O206        O  0.92766863  0.37052788  0.28921060    -0.77130
O207        O  0.88403880  0.33459637  0.26623683    -0.86620
O208        O  0.87323676  0.38913159  0.28910486    -0.86310
O209        O  0.82846415  0.32198158  0.27738248    -0.73070
O210        O  0.81762286  0.37153680  0.29957590    -0.85200
Zr211      Zr  0.82874628  0.37325850  0.18828602     2.26420
Zr212      Zr  0.85468694  0.31007932  0.22868726     2.06270
Zr213      Zr  0.83362164  0.41204398  0.27255540     2.10050
Zr214      Zr  0.89887197  0.37624481  0.24180902     1.78760
O215        O  0.79007454  0.43365367  0.27871821    -0.94010
O216        O  0.93416657  0.34686808  0.21997588    -0.41810
O217        O  0.85925594  0.39830573  0.22487840    -0.78450
O218        O  0.87010291  0.35235279  0.20450739    -0.97130
O219        O  0.81371970  0.33189867  0.21349884    -0.90440
O220        O  0.80334495  0.38726619  0.23675211    -0.93280
C221        C  0.92613477  0.36001418  0.31838005     1.00470
C222        C  0.85582749  0.41032345  0.35610098     1.13400
C223        C  0.86713566  0.27783280  0.30431864     1.04180
O224        O  0.88730221  0.27499319  0.21480761    -0.95430
O225        O  0.86832118  0.30912749  0.16990946    -0.91180
O226        O  0.83687184  0.33634611  0.14791969    -0.84320
C227        C  0.85799241  0.32176696  0.14515281     1.10820
O228        O  0.77082232  0.32356414  0.31181054    -0.97410
Zr229      Zr  0.78862142  0.34591280  0.26185774     1.88940
O230        O  0.78110051  0.37086491  0.17381080    -0.74060
O231        O  0.82058966  0.27725462  0.21040427    -0.53320
O232        O  0.76742065  0.30211207  0.24774120    -0.98000
O233        O  0.75380051  0.37344249  0.28832314    -0.55220
O234        O  0.75623288  0.35636315  0.21773909    -0.74570
C235        C  0.75835183  0.36527278  0.18757688     0.97770
O236        O  0.84254862  0.39153495  0.13407736    -0.63390
O237        O  0.84036148  0.46110636  0.28178190    -0.58200
O238        O  0.82079005  0.42075425  0.17698809    -0.94880
O239        O  0.84905616  0.42635382  0.21799857    -0.93310
O240        O  0.91615598  0.42263579  0.25046969    -0.93660
O241        O  0.92190142  0.39523603  0.19317298    -0.92450
C242        C  0.83260010  0.43663720  0.19755543     1.16610
H243        H  0.88476354  0.40017992  0.30322134     0.32560
H244        H  0.88194791  0.35151372  0.18547122     0.43410
H245        H  0.78855964  0.39871415  0.23051168     0.36930
H246        H  0.82239630  0.30551280  0.28843379     0.33410
H247        H  0.95106428  0.35548705  0.22794301     0.25200
H248        H  0.83065782  0.26044737  0.20480820     0.31140
H249        H  0.74816815  0.30623694  0.24505765     0.37050
H250        H  0.93553622  0.42036240  0.25471673     0.31510
H251        H  0.82997925  0.46593379  0.30216018     0.30390
H252        H  0.78571411  0.43190584  0.30283737     0.32070
H253        H  0.73671744  0.36431141  0.28196088     0.31030
H254        H  0.90739508  0.39917814  0.17713309     0.35030
H255        H  0.83118085  0.38207183  0.11719969     0.27770
H256        H  0.85204919  0.32567750  0.37999138     0.32000
H257        H  0.75150046  0.32035090  0.30754957     0.34850
H258        H  0.85937821  0.46319866  0.28842838     0.27460
H259        H  0.86083565  0.38449972  0.13012145     0.40330
H260        H  0.90491862  0.28400743  0.21865303     0.30390
H261        H  0.93249662  0.32977203  0.23301483     0.38000
H262        H  0.75383252  0.39081953  0.27574509     0.29850
H263        H  0.81046352  0.27263735  0.23099123     0.29920
H264        H  0.82528512  0.31860333  0.36110648     0.30180
Zr265      Zr  0.89066283  0.38106605  0.85844582     2.17510
O266        O  0.90873449  0.39699475  0.80519196    -0.52170
O267        O  0.88642940  0.33258888  0.84416852    -0.75380
O268        O  0.93722560  0.36614678  0.85365899    -0.82160
O269        O  0.82231951  0.41095290  0.83436491    -0.83910
O270        O  0.95477301  0.36331881  0.90590945    -0.79530
O271        O  0.85463844  0.38209228  0.81512366    -0.91170
O272        O  0.86051055  0.31262403  0.88430496    -0.77130
O273        O  0.89314092  0.35238744  0.90642508    -0.86620
O274        O  0.84622204  0.37606822  0.87927083    -0.86310
O275        O  0.91858856  0.40519603  0.89901744    -0.73070
O276        O  0.87796191  0.42751384  0.87209512    -0.85200
Zr277      Zr  0.86157796  0.41484657  0.98071189     2.26420
Zr278      Zr  0.92069011  0.37575063  0.94694208     2.06270
Zr279      Zr  0.83317508  0.42181479  0.89214034     2.10050
Zr280      Zr  0.84815069  0.34708990  0.92547383     1.78760
O281        O  0.82709858  0.46475090  0.86276333    -0.94010
O282        O  0.86119438  0.30737856  0.95794382    -0.41810
O283        O  0.83315524  0.39223763  0.93994051    -0.78450
O284        O  0.87529916  0.36940043  0.96542666    -0.97130
O285        O  0.90686097  0.42099911  0.96303749    -0.90440
O286        O  0.86013759  0.44451072  0.93358385    -0.93280
C287        C  0.87448496  0.31182468  0.85728622     1.00470
C288        C  0.83166389  0.39410043  0.81253320     1.13400
C289        C  0.95682157  0.36179242  0.87386540     1.04180
O290        O  0.94025474  0.33137482  0.95846288    -0.95430
O291        O  0.91617277  0.36299152  0.00603289    -0.91180
O292        O  0.88182519  0.38886161  0.02611190    -0.84320
C293        C  0.89948225  0.37006068  0.02917186     1.10820
O294        O  0.93699692  0.46520559  0.87317254    -0.97410
Zr295      Zr  0.90458914  0.45018759  0.91532137     1.88940
O296        O  0.87214410  0.46110451  0.99964959    -0.74060
O297        O  0.95959738  0.39947421  0.97032733    -0.53320
O298        O  0.94851067  0.45923200  0.93973340    -0.98000
O299        O  0.88987331  0.49081915  0.88581399    -0.55220
O300        O  0.89449865  0.48462387  0.95929658    -0.74570
C301        C  0.88270242  0.48316617  0.98805469     0.97770
O302        O  0.83884108  0.42008479  0.03473606    -0.63390
O303        O  0.78565167  0.40993309  0.88913060    -0.58200
O304        O  0.81380751  0.42133964  0.97898901    -0.94880
O305        O  0.80952748  0.44782818  0.93361426    -0.93310
O306        O  0.80512615  0.33379982  0.90127905    -0.93660
O307        O  0.81572698  0.33486325  0.96880884    -0.92450
C308        C  0.80016675  0.43665415  0.95980012     1.16610
H309        H  0.83385945  0.36663839  0.86458719     0.32560
H310        H  0.87275907  0.35617724  0.98279641     0.43410
H311        H  0.85314903  0.46235744  0.93900219     0.36930
H312        H  0.93624453  0.40836718  0.88980093     0.33410
H313        H  0.85160960  0.29167562  0.94740209     0.25200
H314        H  0.97011853  0.38482465  0.98087439     0.31140
H315        H  0.94817486  0.47875998  0.94665420     0.37050
H316        H  0.80529701  0.31351476  0.90072154     0.31510
H317        H  0.77822171  0.42209446  0.87186156     0.30390
H318        H  0.80754407  0.46793753  0.86377090     0.32070
H319        H  0.89916938  0.50637138  0.89706884     0.31030
H320        H  0.81916614  0.34815477  0.98723353     0.35030
H321        H  0.83385626  0.40133073  0.04195296     0.27770
H322        H  0.91528384  0.38026304  0.79372895     0.32000
H323        H  0.94335300  0.48354432  0.88067698     0.34850
H324        H  0.78500024  0.39137036  0.87892117     0.27460
H325        H  0.85265846  0.42645782  0.05084144     0.40330
H326        H  0.93116793  0.31851474  0.94277526     0.30390
H327        H  0.88027610  0.30453759  0.95209095     0.38000
H328        H  0.87082102  0.49289792  0.89228698     0.29850
H329        H  0.97040522  0.40497367  0.95057884     0.29920
H330        H  0.92517341  0.40747303  0.81115132     0.30180
Zr331      Zr  0.59977238  0.37884369  0.07393228     2.17510
O332        O  0.58657977  0.39662459  0.12871916    -0.52170
O333        O  0.60107778  0.33089830  0.08845118    -0.75380
O334        O  0.55214922  0.36883234  0.08263351    -0.82160
O335        O  0.66306906  0.41313608  0.09480148    -0.83910
O336        O  0.53188570  0.36479577  0.03150207    -0.79530
O337        O  0.63862633  0.37741706  0.11311104    -0.91170
O338        O  0.62030594  0.30853830  0.04434932    -0.77130
O339        O  0.59045381  0.35102977  0.02551777    -0.86620
O340        O  0.64177501  0.36822052  0.04857696    -0.86310
O341        O  0.57227657  0.40554136  0.03668573    -0.73070
O342        O  0.61836280  0.42306337  0.05994003    -0.85200
Zr343      Zr  0.62507592  0.41206280  0.95066747     2.26420
Zr344      Zr  0.56388229  0.37722134  0.98785109     2.06270
Zr345      Zr  0.66033047  0.41172833  0.03444844     2.10050
Zr346      Zr  0.63263513  0.34086080  0.00100312     1.78760
O347        O  0.69101086  0.44548443  0.05899611    -0.94010
O348        O  0.60855129  0.30364380  0.97251977    -0.41810
O349        O  0.65252547  0.38407245  0.98577595    -0.78450
O350        O  0.60714495  0.36740662  0.96373060    -0.97130
O351        O  0.58217117  0.42141662  0.97389061    -0.90440
O352        O  0.63348198  0.43944459  0.99923125    -0.93280
C353        C  0.60942275  0.30922865  0.07352635     1.00470
C354        C  0.66000937  0.39262433  0.11415068     1.13400
C355        C  0.53160212  0.36471586  0.06371429     1.04180
O356        O  0.53953974  0.33508472  0.97425241    -0.95430
O357        O  0.56498605  0.36786978  0.92724432    -0.91180
O358        O  0.58741737  0.40580379  0.91325443    -0.84320
C359        C  0.57725104  0.38254530  0.90530604     1.10820
O360        O  0.56416374  0.46522991  0.06923893    -0.97410
Zr361      Zr  0.59108836  0.44911181  0.02203136     1.88940
O362        O  0.62401004  0.46058164  0.93677581    -0.74060
O363        O  0.52574346  0.40451354  0.97124058    -0.53320
O364        O  0.54732700  0.46418954  0.00320725    -0.98000
O365        O  0.61259671  0.48718900  0.05181623    -0.55220
O366        O  0.60155859  0.48295117  0.97835842    -0.74570
C367        C  0.61449586  0.48242053  0.95035307     0.97770
O368        O  0.63950768  0.40021598  0.89392885    -0.63390
O369        O  0.69876120  0.38133588  0.03065689    -0.58200
O370        O  0.67239458  0.41891162  0.94328585    -0.94880
O371        O  0.68441568  0.43751452  0.99313992    -0.93310
O372        O  0.67540628  0.32201902  0.01807950    -0.93660
O373        O  0.66025738  0.32370664  0.95503495    -0.92450
C374        C  0.68925874  0.43038093  0.96297541     1.16610
H375        H  0.65351651  0.35776357  0.06256553     0.32560
H376        H  0.60715426  0.35611185  0.94380499     0.43410
H377        H  0.64246932  0.45662951  0.99478441     0.36930
H378        H  0.55553409  0.41013638  0.04741502     0.33410
H379        H  0.61960080  0.28722006  0.97614779     0.25200
H380        H  0.51227471  0.39088245  0.96338187     0.31140
H381        H  0.54960032  0.48404773  0.99901559     0.37050
H382        H  0.67200013  0.30207196  0.02010755     0.31510
H383        H  0.71476504  0.39349517  0.03136220     0.30390
H384        H  0.70924854  0.43909715  0.05329422     0.32070
H385        H  0.60639011  0.50386768  0.04039801     0.31030
H386        H  0.65909202  0.33793016  0.93758708     0.35030
H387        H  0.64950194  0.41641271  0.88551763     0.27770
H388        H  0.57878370  0.38067076  0.14060315     0.32000
H389        H  0.55965867  0.48443452  0.06406029     0.34850
H390        H  0.69912040  0.37126338  0.05203274     0.27460
H391        H  0.65312856  0.38580177  0.89652448     0.40330
H392        H  0.55007996  0.32044453  0.98479641     0.30390
H393        H  0.61020227  0.30729282  0.94823719     0.38000
H394        H  0.63182434  0.48593844  0.04580152     0.29850
H395        H  0.51829121  0.41166661  0.99258857     0.29920
H396        H  0.57115611  0.40863094  0.12427365     0.30180
Zr397      Zr  0.63315523  0.63313464  0.82053473     2.17510
O398        O  0.64785640  0.65071034  0.87481351    -0.52170
O399        O  0.58523605  0.62967042  0.83149634    -0.75380
O400        O  0.61985293  0.68082350  0.82555589    -0.82160
O401        O  0.65938462  0.56331711  0.84676946    -0.83910
O402        O  0.61658061  0.69800686  0.77305106    -0.79530
O403        O  0.63274718  0.59792595  0.86524279    -0.91170
O404        O  0.56810340  0.60042821  0.79216345    -0.77130
O405        O  0.60724032  0.63616673  0.77053244    -0.86620
O406        O  0.62760754  0.58770078  0.79960382    -0.86310
O407        O  0.65882617  0.66154747  0.78215906    -0.73070
O408        O  0.67837292  0.61827741  0.81027284    -0.85200
Zr409      Zr  0.67180004  0.60226021  0.70226007     2.26420
Zr410      Zr  0.63237971  0.66396092  0.73197892     2.06270
Zr411      Zr  0.67211173  0.57252028  0.78959072     2.10050
Zr412      Zr  0.60212031  0.59031755  0.75059272     1.78760
O413        O  0.71194812  0.56312681  0.82231093    -0.94010
O414        O  0.56477750  0.60764640  0.71817843    -0.41810
O415        O  0.64636395  0.57334867  0.73942680    -0.78450
O416        O  0.62687313  0.61738050  0.71248884    -0.97130
O417        O  0.67708325  0.64863385  0.72036469    -0.90440
O418        O  0.69705272  0.60042014  0.75232065    -0.93280
C419        C  0.56595175  0.61578780  0.81822935     1.00470
C420        C  0.64386032  0.57426304  0.86864902     1.13400
C421        C  0.61489209  0.70038686  0.80524203     1.04180
O422        O  0.59074777  0.68487588  0.71434449    -0.95430
O423        O  0.62525696  0.65772523  0.67122835    -0.91180
O424        O  0.66158699  0.63335956  0.65682725    -0.84320
C425        C  0.63899436  0.64400036  0.64950213     1.10820
O426        O  0.71516324  0.67866780  0.81408855    -0.97410
Zr427      Zr  0.70316211  0.64586472  0.77004737     1.88940
O428        O  0.71835238  0.61038199  0.68603684    -0.74060
O429        O  0.65728179  0.70406045  0.71277157    -0.53320
O430        O  0.71523816  0.68975947  0.74526376    -0.98000
O431        O  0.74114652  0.63111561  0.80326425    -0.55220
O432        O  0.73861503  0.63342734  0.72903660    -0.74570
C433        C  0.73925579  0.62029377  0.70079177     0.97770
O434        O  0.65564309  0.57170490  0.65800328    -0.63390
O435        O  0.65680099  0.52493505  0.78906365    -0.58200
O436        O  0.69898480  0.56169787  0.69896264    -0.94880
O437        O  0.69994054  0.54597808  0.75228866    -0.93310
O438        O  0.58814228  0.54531762  0.77053687    -0.93660
O439        O  0.58870715  0.55885779  0.70580749    -0.92450
C440        C  0.70704803  0.54505847  0.72131155     1.16610
H441        H  0.61751751  0.57573365  0.81418912     0.32560
H442        H  0.61624366  0.61508220  0.69256010     0.43410
H443        H  0.71463482  0.59279949  0.74933110     0.36930
H444        H  0.66161412  0.67964648  0.79150645     0.33410
H445        H  0.54890772  0.59725295  0.72630849     0.25200
H446        H  0.64361324  0.71559912  0.70208669     0.31140
H447        H  0.73492638  0.68910827  0.74217891     0.37050
H448        H  0.56834093  0.54612117  0.77189358     0.31510
H449        H  0.66850718  0.51563977  0.80526476     0.30390
H450        H  0.71296238  0.54288074  0.82270924     0.32070
H451        H  0.75706885  0.63957106  0.79243082     0.31030
H452        H  0.59485780  0.56773209  0.68489365     0.35030
H453        H  0.65312056  0.55368492  0.66884050     0.27770
H454        H  0.63111116  0.65474107  0.88721818     0.32000
H455        H  0.73324907  0.68567610  0.80809084     0.34850
H456        H  0.63897744  0.52526488  0.80007354     0.27460
H457        H  0.63716376  0.57784810  0.65364327     0.40330
H458        H  0.57688956  0.67713939  0.72949870     0.30390
H459        H  0.56209779  0.62651305  0.72677603     0.38000
H460        H  0.74274870  0.61128781  0.79829842     0.29850
H461        H  0.66211890  0.71413255  0.73356850     0.29920
H462        H  0.65610149  0.66885513  0.87025027     0.30180
Zr463      Zr  0.63038835  0.35123945  0.61798908     2.17510
O464        O  0.64572865  0.33237265  0.56461130    -0.52170
O465        O  0.58302680  0.35447834  0.60592732    -0.75380
O466        O  0.61742320  0.30310940  0.61459884    -0.82160
O467        O  0.65159748  0.42189785  0.59259537    -0.83910
O468        O  0.61911358  0.28405827  0.66650309    -0.79530
O469        O  0.62884213  0.38510280  0.57189095    -0.91170
O470        O  0.56546615  0.38207352  0.64640046    -0.77130
O471        O  0.60542786  0.34586936  0.66884884    -0.86620
O472        O  0.62303625  0.39614876  0.63932666    -0.86310
O473        O  0.65769956  0.32450911  0.65527045    -0.73070
O474        O  0.67483036  0.36958406  0.62708516    -0.85200
Zr475      Zr  0.67003208  0.38324617  0.73675756     2.26420
Zr476      Zr  0.63250334  0.31993550  0.70659767     2.06270
Zr477      Zr  0.66672520  0.41443328  0.64910696     2.10050
Zr478      Zr  0.59864448  0.39126161  0.68920743     1.78760
O479        O  0.71128592  0.42396909  0.62663658    -0.94010
O480        O  0.56137442  0.36997968  0.71936562    -0.41810
O481        O  0.64222613  0.41064045  0.70062832    -0.78450
O482        O  0.62553270  0.36613837  0.72574410    -0.97130
O483        O  0.67689136  0.33762810  0.71709105    -0.90440
O484        O  0.69413362  0.38818668  0.68510160    -0.93280
C485        C  0.56378068  0.36805416  0.61915868     1.00470
C486        C  0.63801186  0.40989317  0.56946625     1.13400
C487        C  0.61572236  0.28257920  0.63455927     1.04180
O488        O  0.59267600  0.29472539  0.72466309    -0.95430
O489        O  0.62301005  0.32608914  0.76684217    -0.91180
O490        O  0.65458784  0.35675298  0.78505939    -0.84320
C491        C  0.63323778  0.34207348  0.78945790     1.10820
O492        O  0.71378357  0.31311273  0.61934453    -0.97410
Zr493      Zr  0.70133526  0.34323689  0.66584036     1.88940
O494        O  0.71631166  0.37337005  0.75238311    -0.74060
O495        O  0.66039613  0.28313580  0.72701666    -0.53320
O496        O  0.71460177  0.29904298  0.68785299    -0.98000
O497        O  0.73933198  0.36036182  0.63322479    -0.55220
O498        O  0.73676388  0.35599215  0.70591387    -0.74570
C499        C  0.73729993  0.36602859  0.73584300     0.97770
O500        O  0.66077071  0.41215955  0.78550092    -0.63390
O501        O  0.65925443  0.46277712  0.63735868    -0.58200
O502        O  0.69743195  0.42417886  0.73537885    -0.94880
O503        O  0.67295481  0.44425426  0.69670983    -0.93310
O504        O  0.58548022  0.43730843  0.67368437    -0.93660
O505        O  0.58218647  0.41775135  0.73691563    -0.92450
C506        C  0.69368850  0.44372653  0.71518240     1.16610
H507        H  0.61222284  0.40733851  0.62502973     0.32560
H508        H  0.61429780  0.36831203  0.74517693     0.43410
H509        H  0.71133434  0.39723091  0.68745416     0.36930
H510        H  0.66124027  0.30675546  0.64551228     0.33410
H511        H  0.54518634  0.37917863  0.71094552     0.25200
H512        H  0.64818596  0.27197445  0.74114520     0.31140
H513        H  0.73400377  0.30107240  0.69250155     0.37050
H514        H  0.56566567  0.43707506  0.67526690     0.31510
H515        H  0.66933578  0.46690225  0.61653798     0.30390
H516        H  0.70806955  0.43104938  0.60385995     0.32070
H517        H  0.75499056  0.35024167  0.64160269     0.31030
H518        H  0.59802100  0.42033610  0.75150884     0.35030
H519        H  0.67840869  0.41581724  0.79600051     0.27770
H520        H  0.62978727  0.32318761  0.55472891     0.32000
H521        H  0.73133456  0.30534820  0.62541449     0.34850
H522        H  0.64011717  0.46396670  0.63111673     0.27460
H523        H  0.65525306  0.42999649  0.77630818     0.40330
H524        H  0.57806107  0.30176433  0.71055524     0.30390
H525        H  0.56010019  0.35114149  0.71005474     0.38000
H526        H  0.74227825  0.37938145  0.64132992     0.29850
H527        H  0.66382834  0.27149991  0.70703385     0.29920
H528        H  0.65781046  0.31726673  0.57067438     0.30180
Zr529      Zr  0.67352261  0.10207088  0.23091045     2.17510
O530        O  0.67204166  0.07858642  0.28458859    -0.52170
O531        O  0.71948343  0.11268117  0.24718322    -0.75380
O532        O  0.69244826  0.05658651  0.22601376    -0.82160
O533        O  0.62303213  0.15474743  0.26236581    -0.83910
O534        O  0.70658478  0.05274251  0.17256930    -0.79530
O535        O  0.64987777  0.12033350  0.27980732    -0.91170
O536        O  0.74053337  0.13273542  0.20299297    -0.77130
O537        O  0.69839874  0.10021698  0.18030246    -0.86620
O538        O  0.68081910  0.14858058  0.21489189    -0.86310
O539        O  0.64605940  0.07476727  0.19337991    -0.73070
O540        O  0.62982588  0.11977427  0.22174540    -0.85200
Zr541      Zr  0.63429134  0.13693248  0.11510320     2.26420
Zr542      Zr  0.67145731  0.07438490  0.14207231     2.06270
Zr543      Zr  0.63664500  0.16593255  0.20521185     2.10050
Zr544      Zr  0.70533406  0.14582232  0.16339215     1.78760
O545        O  0.59608907  0.18971085  0.22227046    -0.94010
O546        O  0.74205886  0.12867716  0.12899126    -0.41810
O547        O  0.66139909  0.16357821  0.15379239    -0.78450
O548        O  0.67899988  0.12002372  0.12269684    -0.97130
O549        O  0.62766874  0.09155963  0.13369617    -0.90440
O550        O  0.60971600  0.14053549  0.16642175    -0.93280
C551        C  0.74063436  0.12136728  0.23198020     1.00470
C552        C  0.63111829  0.13782465  0.28451852     1.13400
C553        C  0.70633263  0.04489565  0.20290958     1.04180
O554        O  0.70600005  0.06077370  0.10222122    -0.95430
O555        O  0.65544739  0.06586914  0.08588936    -0.91180
O556        O  0.63048354  0.10210102  0.06982728    -0.84320
C557        C  0.64024269  0.07797212  0.06503010     1.10820
O558        O  0.58845566  0.06285970  0.22768172    -0.97410
Zr559      Zr  0.60250650  0.09446710  0.18382941     1.88940
O560        O  0.58649622  0.13352000  0.10365731    -0.74060
O561        O  0.65494104  0.02724413  0.14567756    -0.53320
O562        O  0.58741611  0.05136434  0.15859932    -0.98000
O563        O  0.56739829  0.11233105  0.22041861    -0.55220
O564        O  0.56752655  0.10795191  0.14513675    -0.74570
C565        C  0.56633619  0.12200082  0.11815692     0.97770
O566        O  0.64913432  0.15683448  0.06226648    -0.63390
O567        O  0.66024329  0.20432145  0.23176294    -0.58200
O568        O  0.62261088  0.18484409  0.11317137    -0.94880
O569        O  0.62351384  0.20150707  0.16655225    -0.93310
O570        O  0.72070133  0.18984903  0.18567392    -0.93660
O571        O  0.71850570  0.17816928  0.12009396    -0.92450
C572        C  0.62041079  0.20430900  0.13485573     1.16610
H573        H  0.69047116  0.15870320  0.23197847     0.32560
H574        H  0.68828151  0.11957030  0.10140127     0.43410
H575        H  0.59318734  0.15036854  0.16398168     0.36930
H576        H  0.64376304  0.05645092  0.20197688     0.33410
H577        H  0.75793210  0.13952813  0.13622582     0.25200
H578        H  0.66384058  0.01757941  0.12683213     0.31140
H579        H  0.56769853  0.05296202  0.15696161     0.37050
H580        H  0.74043321  0.18825005  0.18702369     0.31510
H581        H  0.66602555  0.19746026  0.25381299     0.30390
H582        H  0.60257563  0.20642135  0.23408864     0.32070
H583        H  0.55037668  0.10809313  0.20871189     0.31030
H584        H  0.70584150  0.17446258  0.10153482     0.35030
H585        H  0.66027066  0.17292180  0.06878654     0.27770
H586        H  0.69072555  0.07307814  0.28901632     0.32000
H587        H  0.56972378  0.05759289  0.22230697     0.34850
H588        H  0.67698600  0.20671712  0.21867839     0.27460
H589        H  0.66217467  0.14364177  0.05289885     0.40330
H590        H  0.71834343  0.07675314  0.10097934     0.30390
H591        H  0.74533782  0.11003117  0.13751555     0.38000
H592        H  0.56934695  0.13250260  0.21905140     0.29850
H593        H  0.66320511  0.01956661  0.16597667     0.29920
H594        H  0.66218934  0.06119035  0.28024073     0.30180
Zr595      Zr  0.67561016  0.88226309  0.20726432     2.17510
O596        O  0.68040525  0.90540182  0.15360957    -0.52170
O597        O  0.72091103  0.86865496  0.19138084    -0.75380
O598        O  0.69518999  0.92759616  0.21503763    -0.82160
O599        O  0.62120739  0.83329441  0.17097865    -0.83910
O600        O  0.70786937  0.93079235  0.26900301    -0.79530
O601        O  0.64881435  0.86926805  0.15860551    -0.91170
O602        O  0.73880363  0.84569106  0.23500896    -0.77130
O603        O  0.69890023  0.88151066  0.25875727    -0.86620
O604        O  0.67919133  0.83499673  0.22089834    -0.86310
O605        O  0.64832157  0.90931318  0.24492426    -0.73070
O606        O  0.63069104  0.86626579  0.21449066    -0.85200
Zr607      Zr  0.62980062  0.84541756  0.31968395     2.26420
Zr608      Zr  0.67198168  0.90710492  0.29696575     2.06270
Zr609      Zr  0.63365521  0.81928269  0.22772791     2.10050
Zr610      Zr  0.70178045  0.83497877  0.27361776     1.78760
O611        O  0.59256551  0.79627408  0.20963772    -0.94010
O612        O  0.73943739  0.84922635  0.30853675    -0.41810
O613        O  0.65643431  0.81939951  0.28033917    -0.78450
O614        O  0.67578947  0.86063221  0.31450417    -0.97130
O615        O  0.62693892  0.89152724  0.30306575    -0.90440
O616        O  0.60678951  0.84423754  0.26720663    -0.93280
C617        C  0.74067317  0.85760066  0.20646766     1.00470
C618        C  0.62957400  0.85245815  0.15141785     1.13400
C619        C  0.70826706  0.93927656  0.23894106     1.04180
O620        O  0.70613305  0.91723863  0.33874987    -0.95430
O621        O  0.65430105  0.91513069  0.35217261    -0.91180
O622        O  0.62600230  0.88004432  0.36559724    -0.84320
C623        C  0.63700982  0.90374380  0.37148944     1.10820
O624        O  0.59160067  0.92265283  0.20759541    -0.97410
Zr625      Zr  0.60324218  0.89119493  0.25220947     1.88940
O626        O  0.58190302  0.84929782  0.32959544    -0.74060
O627        O  0.65687861  0.95449375  0.29600011    -0.53320
O628        O  0.59099599  0.93540326  0.27625933    -0.98000
O629        O  0.56700398  0.87464453  0.21623596    -0.55220
O630        O  0.56728718  0.87997585  0.29163227    -0.74570
C631        C  0.56350864  0.86393585  0.31666877     0.97770
O632        O  0.64149544  0.82380423  0.37237395    -0.63390
O633        O  0.65802996  0.78317622  0.19850796    -0.58200
O634        O  0.61740966  0.79721677  0.31841598    -0.94880
O635        O  0.62152391  0.78172612  0.26444150    -0.93310
O636        O  0.71210940  0.78979376  0.25096256    -0.93660
O637        O  0.71211532  0.80197114  0.31692705    -0.92450
C638        C  0.61699396  0.77830625  0.29581348     1.16610
H639        H  0.68877632  0.82496287  0.20374914     0.32560
H640        H  0.68441118  0.86004749  0.33610286     0.43410
H641        H  0.58951580  0.83519106  0.26871602     0.36930
H642        H  0.64725412  0.92795580  0.23718136     0.33410
H643        H  0.75444855  0.83746973  0.30119144     0.25200
H644        H  0.66600739  0.96348091  0.31520605     0.31140
H645        H  0.57124425  0.93454022  0.27872169     0.37050
H646        H  0.73187182  0.78979904  0.24854213     0.31510
H647        H  0.65016264  0.76587946  0.20708474     0.30390
H648        H  0.59863066  0.78120423  0.19475714     0.32070
H649        H  0.55850848  0.85932813  0.22861857     0.31030
H650        H  0.69443454  0.79641660  0.32615839     0.35030
H651        H  0.65304669  0.80826136  0.36583938     0.27770
H652        H  0.69954894  0.91083590  0.15199658     0.32000
H653        H  0.57313716  0.92869130  0.21274571     0.34850
H654        H  0.65180973  0.78409656  0.17503357     0.27460
H655        H  0.65390532  0.83692772  0.38353514     0.40330
H656        H  0.72101171  0.90475732  0.33309976     0.30390
H657        H  0.74441500  0.86771312  0.30041516     0.38000
H658        H  0.57611703  0.86569324  0.19702342     0.29850
H659        H  0.66524232  0.96290722  0.27599614     0.29920
H660        H  0.67067939  0.92286828  0.15634653     0.30180
Zr661      Zr  0.86222325  0.06093989  0.47694893     2.17510
O662        O  0.84411713  0.06132489  0.53388355    -0.52170
O663        O  0.87016156  0.01306274  0.48848522    -0.75380
O664        O  0.81533224  0.04860397  0.47834851    -0.82160
O665        O  0.91780072  0.10966211  0.50575338    -0.83910
O666        O  0.81511658  0.03116512  0.42714574    -0.79530
O667        O  0.88656334  0.07920019  0.52459003    -0.91170
O668        O  0.88751486  0.99253615  0.44208361    -0.77130
O669        O  0.85554276  0.03725441  0.42519685    -0.86620
O670        O  0.90586180  0.05287946  0.45497726    -0.86310
O671        O  0.83516132  0.09128438  0.44357565    -0.73070
O672        O  0.88097553  0.10573205  0.46897406    -0.85200
Zr673      Zr  0.89105219  0.10379369  0.35915186     2.26420
Zr674      Zr  0.82976018  0.06715322  0.39105230     2.06270
Zr675      Zr  0.92431622  0.09794438  0.44636921     2.10050
Zr676      Zr  0.89859283  0.02960512  0.40279593     1.78760
O677        O  0.95118029  0.13804380  0.46182008    -0.94010
O678        O  0.87740930  0.99386237  0.36876915    -0.41810
O679        O  0.91732079  0.07441863  0.39411425    -0.78450
O680        O  0.87254697  0.05838047  0.36609826    -0.97130
O681        O  0.84837670  0.11165486  0.38325765    -0.90440
O682        O  0.89905502  0.12733648  0.41115442    -0.93280
C683        C  0.87746230  0.99181916  0.47182665     1.00470
C684        C  0.90366576  0.09865878  0.52920930     1.13400
C685        C  0.80273868  0.03801814  0.45358672     1.04180
O686        O  0.79981113  0.03514527  0.36222312    -0.95430
O687        O  0.82440127  0.07410693  0.33194115    -0.91180
O688        O  0.85364675  0.10799916  0.31847223    -0.84320
C689        C  0.83209289  0.09369323  0.31302977     1.10820
O690        O  0.82918981  0.14901646  0.48317538    -0.97410
Zr691      Zr  0.85583026  0.13531172  0.43454293     1.88940
O692        O  0.88764044  0.15262286  0.34984704    -0.74060
O693        O  0.78734204  0.09163481  0.39376947    -0.53320
O694        O  0.81237737  0.15284167  0.41790760    -0.98000
O695        O  0.87836046  0.17007177  0.46889421    -0.55220
O696        O  0.86611117  0.17123363  0.39493968    -0.74570
C697        C  0.87746216  0.17279111  0.36614485     0.97770
O698        O  0.90723653  0.09093652  0.30350248    -0.63390
O699        O  0.96052292  0.06996311  0.46758535    -0.58200
O700        O  0.93888541  0.11353025  0.35306471    -0.94880
O701        O  0.95801993  0.10905970  0.40459092    -0.93310
O702        O  0.94278226  0.01369916  0.41874172    -0.93660
O703        O  0.92642934  0.01596964  0.35539166    -0.92450
C704        C  0.95910667  0.11337737  0.37295427     1.16610
H705        H  0.91635281  0.04220721  0.47026738     0.32560
H706        H  0.87043321  0.04945777  0.34454799     0.43410
H707        H  0.90916567  0.14412780  0.40806913     0.36930
H708        H  0.81825600  0.09458212  0.45453269     0.33410
H709        H  0.88567779  0.97660321  0.37615278     0.25200
H710        H  0.77325190  0.07722657  0.39479193     0.31140
H711        H  0.81478225  0.17299877  0.41726334     0.37050
H712        H  0.94060124  0.99363234  0.42126703     0.31510
H713        H  0.97707915  0.07826336  0.45814726     0.30390
H714        H  0.96667891  0.13062826  0.47404117     0.32070
H715        H  0.87324502  0.18780880  0.45908070     0.31030
H716        H  0.92644003  0.03203846  0.34043346     0.35030
H717        H  0.92230017  0.07838329  0.30757954     0.27770
H718        H  0.83605382  0.04291740  0.53728388     0.32000
H719        H  0.82572985  0.16880319  0.48038799     0.34850
H720        H  0.96130470  0.07438536  0.49182508     0.27460
H721        H  0.89302542  0.07888383  0.29403701     0.40330
H722        H  0.81114044  0.01917902  0.35673706     0.30390
H723        H  0.85873585  0.99277342  0.37722879     0.38000
H724        H  0.89763827  0.16825479  0.46342656     0.29850
H725        H  0.78648990  0.10116676  0.41567964     0.29920
H726        H  0.82875966  0.07399980  0.53347759     0.30180
Zr727      Zr  0.62596693  0.06402035  0.45324092     2.17510
O728        O  0.63731420  0.06465937  0.39360182    -0.52170
O729        O  0.62196240  0.01465260  0.44407568    -0.75380
O730        O  0.67296349  0.05736901  0.44176176    -0.82160
O731        O  0.57545392  0.11582324  0.43197588    -0.83910
O732        O  0.69128952  0.05595157  0.49362526    -0.79530
O733        O  0.59588926  0.07913988  0.40933522    -0.91170
O734        O  0.60044816  0.99442468  0.48773582    -0.77130
O735        O  0.63400127  0.03873914  0.50291174    -0.86620
O736        O  0.58290172  0.05513023  0.47711883    -0.86310
O737        O  0.65366127  0.09423806  0.48741435    -0.73070
O738        O  0.60837176  0.10843047  0.46529051    -0.85200
Zr739      Zr  0.60116799  0.10509544  0.57485657     2.26420
Zr740      Zr  0.66056081  0.06831062  0.53758370     2.06270
Zr741      Zr  0.56537131  0.09995993  0.48879627     2.10050
Zr742      Zr  0.59129802  0.03133425  0.52798047     1.78760
O743        O  0.53500441  0.13622715  0.47268353    -0.94010
O744        O  0.61107833  0.99383856  0.55891368    -0.41810
O745        O  0.57357413  0.07590174  0.53970253    -0.78450
O746        O  0.61868434  0.05975301  0.56477945    -0.97130
O747        O  0.64314286  0.11266526  0.54863743    -0.90440
O748        O  0.59164935  0.12937326  0.52453637    -0.93280
C749        C  0.61267804  0.99351598  0.45937091     1.00470
C750        C  0.58588427  0.10305613  0.40691174     1.13400
C751        C  0.69263975  0.05467498  0.46168433     1.04180
O752        O  0.66510367  0.02411643  0.56455099    -0.95430
O753        O  0.67499861  0.09197594  0.58806622    -0.91180
O754        O  0.63900126  0.11038285  0.61455455    -0.84320
C755        C  0.66425900  0.10499963  0.61262169     1.10820
O756        O  0.66031132  0.15399746  0.45182871    -0.97410
Zr757      Zr  0.63440823  0.13784189  0.49986702     1.88940
O758        O  0.60460760  0.15425863  0.58698127    -0.74060
O759        O  0.70754044  0.07023972  0.55461258    -0.53320
O760        O  0.67862696  0.15530671  0.51535593    -0.98000
O761        O  0.61082366  0.17227498  0.46780936    -0.55220
O762        O  0.62639847  0.17224833  0.54247879    -0.74570
C763        C  0.61546977  0.17455570  0.57138671     0.97770
O764        O  0.58714103  0.09006914  0.63040457    -0.63390
O765        O  0.52948781  0.07058370  0.46711492    -0.58200
O766        O  0.55356115  0.11299113  0.58320939    -0.94880
O767        O  0.53344792  0.11282549  0.53192500    -0.93310
O768        O  0.54619376  0.01631794  0.51289036    -0.93660
O769        O  0.56471677  0.01746225  0.57637811    -0.92450
C770        C  0.53305412  0.11474673  0.56398936     1.16610
H771        H  0.57200258  0.04439195  0.46184275     0.32560
H772        H  0.62140936  0.05065514  0.58586334     0.43410
H773        H  0.58192581  0.14605648  0.52879004     0.36930
H774        H  0.67021658  0.09916457  0.47649757     0.33410
H775        H  0.59844344  0.97822361  0.55586935     0.25200
H776        H  0.71527442  0.05219747  0.54883225     0.31140
H777        H  0.68851935  0.13898274  0.52275417     0.37050
H778        H  0.54734258  0.99613567  0.51076023     0.31510
H779        H  0.51294047  0.07778477  0.47758785     0.30390
H780        H  0.52341572  0.12792649  0.45517233     0.32070
H781        H  0.61214870  0.18929665  0.48141127     0.31030
H782        H  0.57124687  0.02938742  0.59488015     0.35030
H783        H  0.57167656  0.07761346  0.62638128     0.27770
H784        H  0.64652676  0.04719638  0.38870569     0.32000
H785        H  0.66331200  0.17385061  0.45585212     0.34850
H786        H  0.52807817  0.07550925  0.44318169     0.27460
H787        H  0.60148518  0.07771404  0.63787212     0.40330
H788        H  0.67562232  0.01304053  0.54838196     0.30390
H789        H  0.62706087  0.98856635  0.54565714     0.38000
H790        H  0.59168251  0.16680564  0.46921244     0.29850
H791        H  0.71650659  0.08344402  0.53943591     0.29920
H792        H  0.65120605  0.07915008  0.39088240     0.30180
Zr793      Zr  0.85847617  0.91698429  0.95990017     2.17510
O794        O  0.83093397  0.89402678  0.91758563    -0.52170
O795        O  0.86305687  0.96463067  0.94441633    -0.75380
O796        O  0.81496356  0.93650554  0.95444023    -0.82160
O797        O  0.91138527  0.87275790  0.92654316    -0.83910
O798        O  0.79812103  0.92831889  0.00642622    -0.79530
O799        O  0.89073007  0.91182734  0.91489426    -0.91170
O800        O  0.88618065  0.98599588  0.98645931    -0.77130
O801        O  0.85380425  0.94303943  0.01009472    -0.86620
O802        O  0.90298794  0.92677653  0.97789634    -0.86310
O803        O  0.83349237  0.88793021  0.99727085    -0.73070
O804        O  0.87782733  0.87278130  0.96690387    -0.85200
Zr805      Zr  0.89197709  0.87833722  0.07576766     2.26420
Zr806      Zr  0.83008057  0.91436813  0.04771332     2.06270
Zr807      Zr  0.92203945  0.88261510  0.98572858     2.10050
Zr808      Zr  0.89797280  0.95170372  0.02886314     1.78760
O809        O  0.94771693  0.84295481  0.96766499    -0.94010
O810        O  0.87901881  0.99010020  0.05997941    -0.41810
O811        O  0.91688626  0.90734950  0.03764852    -0.78450
O812        O  0.87383972  0.92359853  0.06908110    -0.97130
O813        O  0.84841624  0.86996502  0.05508955    -0.90440
O814        O  0.89812539  0.85375793  0.02408404    -0.93280
C815        C  0.87339809  0.98602447  0.95843851     1.00470
C816        C  0.89957246  0.88846709  0.90570209     1.13400
C817        C  0.79587380  0.93528434  0.97575909     1.04180
O818        O  0.82690267  0.95812202  0.07709642    -0.95430
O819        O  0.81869789  0.89156030  0.09896140    -0.91180
O820        O  0.85621133  0.87163898  0.11902425    -0.84320
C821        C  0.83100957  0.87764120  0.12086724     1.10820
O822        O  0.82477268  0.82976623  0.95920622    -0.97410
Zr823      Zr  0.85391664  0.84425118  0.00512311     1.88940
O824        O  0.89144319  0.82953179  0.08643476    -0.74060
O825        O  0.78388108  0.91077170  0.06787178    -0.53320
O826        O  0.81119327  0.82631928  0.02573451    -0.98000
O827        O  0.87429487  0.80857254  0.97059772    -0.55220
O828        O  0.86603887  0.80976072  0.04563106    -0.74570
C829        C  0.88001474  0.80872679  0.07250363     0.97770
O830        O  0.90977754  0.89375422  0.12955298    -0.63390
O831        O  0.95798937  0.91082124  0.96227610    -0.58200
O832        O  0.93949474  0.86840637  0.07858402    -0.94880
O833        O  0.95668573  0.87220763  0.02560554    -0.93310
O834        O  0.94200448  0.96732151  0.00996507    -0.93660
O835        O  0.92679738  0.96725011  0.07442437    -0.92450
C836        C  0.95882686  0.86821259  0.05718703     1.16610
H837        H  0.91290864  0.93754540  0.96175681     0.32560
H838        H  0.87283545  0.93284514  0.09054921     0.43410
H839        H  0.90834583  0.83726107  0.02687362     0.36930
H840        H  0.81600594  0.88404398  0.98817032     0.33410
H841        H  0.89090732  0.00587237  0.05465395     0.25200
H842        H  0.77525633  0.92841129  0.06277519     0.31140
H843        H  0.81375370  0.80629791  0.02751646     0.37050
H844        H  0.93977121  0.98704014  0.00522700     0.31510
H845        H  0.97468055  0.90278024  0.97094898     0.30390
H846        H  0.96096675  0.85030802  0.95142522     0.32070
H847        H  0.86956270  0.79115711  0.98182582     0.31030
H848        H  0.92802293  0.95122057  0.08933238     0.35030
H849        H  0.92457494  0.90658166  0.12378384     0.27770
H850        H  0.81266637  0.89192444  0.92688067     0.32000
H851        H  0.82133984  0.80994958  0.96253533     0.34850
H852        H  0.95809963  0.90619267  0.93807078     0.27460
H853        H  0.89572264  0.90566176  0.13920130     0.40330
H854        H  0.81409063  0.96874421  0.06367314     0.30390
H855        H  0.86207358  0.99413602  0.04830335     0.38000
H856        H  0.89382651  0.81081068  0.97414336     0.29850
H857        H  0.77500169  0.89708032  0.05309045     0.29920
H858        H  0.83771413  0.87504063  0.91706992     0.30180
Zr859      Zr  0.62772525  0.92164274  0.97638112     2.17510
O860        O  0.65082446  0.90926085  0.02794247    -0.52170
O861        O  0.62070285  0.96921859  0.99078968    -0.75380
O862        O  0.67120321  0.94233695  0.97958774    -0.82160
O863        O  0.57564004  0.87331725  0.00489081    -0.83910
O864        O  0.67698193  0.95581510  0.92646189    -0.79530
O865        O  0.59744779  0.91150458  0.02200049    -0.91170
O866        O  0.60214598  0.98974291  0.94567078    -0.77130
O867        O  0.63368906  0.94664386  0.92616781    -0.86620
O868        O  0.58400686  0.92882325  0.95536692    -0.86310
O869        O  0.65596497  0.89349896  0.94110940    -0.73070
O870        O  0.61111882  0.87607477  0.96700002    -0.85200
Zr871      Zr  0.60028685  0.88000755  0.85759629     2.26420
Zr872      Zr  0.66083403  0.91918824  0.89032169     2.06270
Zr873      Zr  0.56743835  0.88324622  0.94570830     2.10050
Zr874      Zr  0.59064453  0.95340649  0.90456530     1.78760
O875        O  0.54306228  0.84118585  0.95897793    -0.94010
O876        O  0.61034771  0.99035170  0.87167654    -0.41810
O877        O  0.57357932  0.90800256  0.89459701    -0.78450
O878        O  0.61752798  0.92598145  0.86632354    -0.97130
O879        O  0.64353696  0.87412692  0.88026293    -0.90440
O880        O  0.59345327  0.85534054  0.90855775    -0.93280
C881        C  0.61267520  0.99037969  0.97511438     1.00470
C882        C  0.58614789  0.88840858  0.02803161     1.13400
C883        C  0.68574178  0.95187688  0.95592568     1.04180
O884        O  0.67958679  0.95537449  0.85546158    -0.95430
O885        O  0.67091627  0.90468305  0.83376271    -0.91180
O886        O  0.63720742  0.87649722  0.81588639    -0.84320
C887        C  0.66055597  0.88794000  0.81244373     1.10820
O888        O  0.66558453  0.83521690  0.97643558    -0.97410
Zr889      Zr  0.63733921  0.84861384  0.92977624     1.88940
O890        O  0.60234325  0.83090902  0.84651578    -0.74060
O891        O  0.70675136  0.90277667  0.89465084    -0.53320
O892        O  0.68122174  0.83411535  0.90976877    -0.98000
O893        O  0.61769400  0.81175675  0.96300428    -0.55220
O894        O  0.62720315  0.81292104  0.88826684    -0.74570
C895        C  0.61398022  0.81078549  0.86074648     0.97770
O896        O  0.58421257  0.89370638  0.80269401    -0.63390
O897        O  0.52985723  0.90831048  0.96970419    -0.58200
O898        O  0.55237341  0.87062575  0.85182250    -0.94880
O899        O  0.53368284  0.87380904  0.90403710    -0.93310
O900        O  0.54651524  0.96862107  0.92262967    -0.93660
O901        O  0.56190149  0.96640134  0.85839751    -0.92450
C902        C  0.53227489  0.87071503  0.87216417     1.16610
H903        H  0.57316579  0.93892981  0.97122316     0.32560
H904        H  0.61935375  0.93514395  0.84506653     0.43410
H905        H  0.58380626  0.83828588  0.90515562     0.36930
H906        H  0.67299248  0.89127367  0.95196480     0.33410
H907        H  0.60066101  0.00697578  0.87900084     0.25200
H908        H  0.71785900  0.91940026  0.89869843     0.31140
H909        H  0.67972054  0.81394291  0.90739007     0.37050
H910        H  0.54859427  0.98863652  0.92618825     0.31510
H911        H  0.51378817  0.89730954  0.96358570     0.30390
H912        H  0.52904656  0.84688607  0.97516236     0.32070
H913        H  0.62348943  0.79463169  0.95177275     0.31030
H914        H  0.56241831  0.95053343  0.84278366     0.35030
H915        H  0.56886403  0.90584540  0.80744354     0.27770
H916        H  0.66953177  0.90525784  0.02134235     0.32000
H917        H  0.67064946  0.81599010  0.97177407     0.34850
H918        H  0.53153329  0.90600373  0.99421821     0.27460
H919        H  0.59823794  0.90624473  0.79384860     0.40330
H920        H  0.66381680  0.96475750  0.84620773     0.30390
H921        H  0.62862886  0.99285360  0.88084595     0.38000
H922        H  0.59820586  0.81261154  0.95864268     0.29850
H923        H  0.70785622  0.89220091  0.91558464     0.29920
H924        H  0.64347731  0.89104659  0.03407027     0.30180
Zr925      Zr  0.81662497  0.09959446  0.70670380     2.17510
O926        O  0.81505140  0.07596263  0.65259135    -0.52170
O927        O  0.77419884  0.11700487  0.68682387    -0.75380
O928        O  0.79282747  0.05607249  0.71061561    -0.82160
O929        O  0.87096742  0.15080724  0.67538057    -0.83910
O930        O  0.78226901  0.04825966  0.76477955    -0.79530
O931        O  0.84621609  0.11311682  0.66079504    -0.91170
O932        O  0.75256652  0.13474459  0.73204819    -0.77130
O933        O  0.79116853  0.09894960  0.75694383    -0.86620
O934        O  0.81237925  0.14650262  0.72289069    -0.86310
O935        O  0.84177080  0.07142914  0.74438318    -0.73070
O936        O  0.86105980  0.11549809  0.71688180    -0.85200
Zr937      Zr  0.85785059  0.13406917  0.82315452     2.26420
Zr938      Zr  0.81629426  0.07271559  0.79545695     2.06270
Zr939      Zr  0.85744237  0.16211575  0.73304473     2.10050
Zr940      Zr  0.78738575  0.14504637  0.77408383     1.78760
O941        O  0.89905545  0.18517026  0.71706202    -0.94010
O942        O  0.74836405  0.12931211  0.80573391    -0.41810
O943        O  0.83238603  0.16089886  0.78426758    -0.78450
O944        O  0.81201024  0.11892616  0.81498302    -0.97130
O945        O  0.86106511  0.08817850  0.80419805    -0.90440
O946        O  0.88286176  0.13594743  0.77192956    -0.93280
C947        C  0.75313483  0.12625316  0.70140010     1.00470
C948        C  0.86438958  0.13138942  0.65485371     1.13400
C949        C  0.78011787  0.04290700  0.73356143     1.04180
O950        O  0.78002980  0.06284311  0.83470646    -0.95430
O951        O  0.83254225  0.06347285  0.85092220    -0.91180
O952        O  0.85970572  0.09879406  0.86741692    -0.84320
C953        C  0.84866563  0.07498206  0.87175061     1.10820
O954        O  0.89945106  0.05869203  0.70851845    -0.97410
Zr955      Zr  0.88652595  0.08927132  0.75432664     1.88940
O956        O  0.90547251  0.12875467  0.83517252    -0.74060
O957        O  0.82954043  0.02488225  0.79170806    -0.53320
O958        O  0.89885871  0.04428902  0.77479165    -0.98000
O959        O  0.92336864  0.10700983  0.72009339    -0.55220
O960        O  0.92087364  0.09885490  0.79588599    -0.74570
C961        C  0.92398080  0.11378058  0.82226900     0.97770
O962        O  0.84438024  0.15441295  0.87658386    -0.63390
O963        O  0.83362778  0.19947547  0.70666632    -0.58200
O964        O  0.87014682  0.18252475  0.82551666    -0.94880
O965        O  0.86983625  0.19844409  0.77213948    -0.93310
O966        O  0.77735922  0.19063654  0.75365227    -0.93660
O967        O  0.77424024  0.17680917  0.81842347    -0.92450
C968        C  0.87276544  0.20177669  0.80388995     1.16610
H969        H  0.80368474  0.15714887  0.70590402     0.32560
H970        H  0.80261282  0.11922078  0.83620295     0.43410
H971        H  0.90017973  0.14470465  0.77467871     0.36930
H972        H  0.84277442  0.05291396  0.73572745     0.33410
H973        H  0.73350809  0.14095609  0.79808850     0.25200
H974        H  0.84711672  0.02426538  0.80305217     0.31140
H975        H  0.89430374  0.04466363  0.79895563     0.37050
H976        H  0.75794921  0.19001105  0.74860138     0.31510
H977        H  0.84152497  0.21636923  0.71659981     0.30390
H978        H  0.89334419  0.20134464  0.70423691     0.32070
H979        H  0.93659785  0.11459612  0.73619328     0.31030
H980        H  0.78845015  0.17521131  0.83549842     0.35030
H981        H  0.83338937  0.17037268  0.87053653     0.27770
H982        H  0.79581561  0.07231865  0.64818687     0.32000
H983        H  0.91806127  0.05318868  0.71342403     0.34850
H984        H  0.84006546  0.19938521  0.68316086     0.27460
H985        H  0.83128899  0.14125022  0.88624694     0.40330
H986        H  0.76904751  0.07959120  0.83514057     0.30390
H987        H  0.74414543  0.11094409  0.79627748     0.38000
H988        H  0.91600003  0.12330740  0.70896073     0.29850
H989        H  0.81709341  0.01515483  0.80704154     0.29920
H990        H  0.82285393  0.05770398  0.65648882     0.30180
Zr991      Zr  0.81411724  0.88531787  0.72272101     2.17510
O992        O  0.81733322  0.91634707  0.77082070    -0.52170
O993        O  0.76969669  0.87202211  0.74109407    -0.75380
O994        O  0.78926342  0.92717934  0.71545877    -0.82160
O995        O  0.86220117  0.83188692  0.76267471    -0.83910
O996        O  0.78393131  0.93493750  0.66023291    -0.79530
O997        O  0.83609893  0.86883599  0.77213434    -0.91170
O998        O  0.75000832  0.85029871  0.69683396    -0.77130
O999        O  0.79049348  0.88345077  0.67165757    -0.86620
O1000       O  0.80920650  0.83779060  0.70996832    -0.86310
O1001       O  0.84150122  0.91154382  0.68508023    -0.73070
O1002       O  0.85861289  0.86858092  0.71788450    -0.85200
Zr1003     Zr  0.85880342  0.84592110  0.61170415     2.26420
Zr1004     Zr  0.81783877  0.90800644  0.63326953     2.06270
Zr1005     Zr  0.85413765  0.82137879  0.70341240     2.10050
Zr1006     Zr  0.78614685  0.83666325  0.65779907     1.78760
O1007       O  0.89708611  0.80256964  0.71979375    -0.94010
O1008       O  0.74891915  0.84961094  0.62226592    -0.41810
O1009       O  0.83117251  0.82081510  0.65095969    -0.78450
O1010       O  0.81297503  0.86110710  0.61652263    -0.97130
O1011       O  0.86260109  0.89239274  0.62834409    -0.90440
O1012       O  0.88159059  0.84590857  0.66431111    -0.93280
C1013       C  0.74915341  0.86223703  0.72577736     1.00470
C1014       C  0.85280619  0.85082044  0.78188413     1.13400
C1015       C  0.77913695  0.94035976  0.69099947     1.04180
O1016       O  0.78405174  0.91343666  0.59010407    -0.95430
O1017       O  0.83882721  0.91517019  0.58005976    -0.91180
O1018       O  0.86350989  0.87837797  0.56444838    -0.84320
C1019       C  0.85437934  0.90267864  0.55959529     1.10820
O1020       O  0.89653549  0.92663186  0.72337117    -0.97410
Zr1021     Zr  0.88596571  0.89310288  0.67957105     1.88940
O1022       O  0.90674047  0.85123753  0.60167041    -0.74060
O1023       O  0.83004078  0.95648672  0.63361408    -0.53320
O1024       O  0.90093635  0.93605668  0.65464136    -0.98000
O1025       O  0.92140162  0.87790099  0.71671882    -0.55220
O1026       O  0.92191613  0.88057866  0.64172505    -0.74570
C1027       C  0.92553519  0.86519004  0.61588299     0.97770
O1028       O  0.84651045  0.82282285  0.55947069    -0.63390
O1029       O  0.82998556  0.78356628  0.72986311    -0.58200
O1030       O  0.87073344  0.79777983  0.61312961    -0.94880
O1031       O  0.86422735  0.78294227  0.66671934    -0.93310
O1032       O  0.77393363  0.79274123  0.68236566    -0.93660
O1033       O  0.77470135  0.80196656  0.61587645    -0.92450
C1034       C  0.86955668  0.77906623  0.63555391     1.16610
H1035       H  0.79951203  0.82818262  0.72736150     0.32560
H1036       H  0.80440067  0.85992514  0.59489951     0.43410
H1037       H  0.89866853  0.83685445  0.66287715     0.36930
H1038       H  0.84253093  0.93040924  0.69256545     0.33410
H1039       H  0.73346896  0.83863047  0.63050908     0.25200
H1040       H  0.82200094  0.96380523  0.61295678     0.31140
H1041       H  0.92076063  0.93524995  0.65467023     0.37050
H1042       H  0.75422108  0.79341127  0.68517937     0.31510
H1043       H  0.84293276  0.76835046  0.73012342     0.30390
H1044       H  0.89245067  0.78547959  0.73178758     0.32070
H1045       H  0.92903009  0.86154958  0.70552053     0.31030
H1046       H  0.79193535  0.79775907  0.60466013     0.35030
H1047       H  0.83498303  0.80719260  0.56636421     0.27770
H1048       H  0.79865373  0.92057858  0.77739619     0.32000
H1049       H  0.91553186  0.93193703  0.71965472     0.34850
H1050       H  0.82807324  0.78909681  0.75367360     0.27460
H1051       H  0.83401247  0.83540845  0.54833752     0.40330
H1052       H  0.76677443  0.90964372  0.60154127     0.30390
H1053       H  0.74479678  0.86863462  0.62920701     0.38000
H1054       H  0.91188909  0.87052726  0.73657997     0.29850
H1055       H  0.84958991  0.95686069  0.62921608     0.29920
H1056       H  0.82485104  0.93373218  0.76202617     0.30180
Zr1057     Zr  0.35930427  0.13304632  0.61522549     2.17510
O1058       O  0.34712431  0.15385316  0.56224333    -0.52170
O1059       O  0.40721269  0.12918159  0.60537334    -0.75380
O1060       O  0.37367502  0.18046920  0.61467340    -0.82160
O1061       O  0.33308900  0.06520597  0.58149921    -0.83910
O1062       O  0.37269140  0.19762624  0.66811085    -0.79530
O1063       O  0.36054572  0.10087824  0.56731992    -0.91170
O1064       O  0.42282036  0.10074087  0.64510232    -0.77130
O1065       O  0.38361528  0.13429152  0.66652142    -0.86620
O1066       O  0.36330770  0.08680262  0.63222216    -0.86310
O1067       O  0.33263525  0.15980059  0.65407919    -0.73070
O1068       O  0.31352453  0.11767729  0.62167188    -0.85200
Zr1069     Zr  0.31620280  0.09820122  0.72919347     2.26420
Zr1070     Zr  0.35754058  0.16075071  0.70553646     2.06270
Zr1071     Zr  0.31829984  0.07127636  0.63892148     2.10050
Zr1072     Zr  0.38695411  0.08756801  0.68265653     1.78760
O1073       O  0.27938420  0.06315800  0.60348685    -0.94010
O1074       O  0.42346986  0.10196727  0.71940498    -0.41810
O1075       O  0.34203312  0.07024857  0.69096187    -0.78450
O1076       O  0.36155337  0.11346237  0.72068732    -0.97130
O1077       O  0.31212930  0.14509589  0.71428488    -0.90440
O1078       O  0.29260228  0.09751274  0.67769487    -0.93280
C1079       C  0.42611253  0.11595085  0.61936838     1.00470
C1080       C  0.34935098  0.07738349  0.56138188     1.13400
C1081       C  0.37588554  0.20004730  0.63619150     1.04180
O1082       O  0.39948999  0.18158398  0.72433610    -0.95430
O1083       O  0.36484385  0.15250028  0.76555310    -0.91180
O1084       O  0.33494396  0.11885676  0.78023190    -0.84320
C1085       C  0.35487582  0.13514694  0.78655250     1.10820
O1086       O  0.27747939  0.17714638  0.62013441    -0.97410
Zr1087     Zr  0.28784772  0.14344785  0.66277681     1.88940
O1088       O  0.27099847  0.11114194  0.74647748    -0.74060
O1089       O  0.33244136  0.19876227  0.72936650    -0.53320
O1090       O  0.27621541  0.18691714  0.68925861    -0.98000
O1091       O  0.25028144  0.12942065  0.62748853    -0.55220
O1092       O  0.25116802  0.13003165  0.70120730    -0.74570
C1093       C  0.25026842  0.11949923  0.73067870     0.97770
O1094       O  0.32243739  0.06909634  0.77782083    -0.63390
O1095       O  0.33360955  0.02411219  0.63574511    -0.58200
O1096       O  0.28962113  0.05643718  0.72451721    -0.94880
O1097       O  0.28897476  0.04184713  0.67042948    -0.93310
O1098       O  0.40079505  0.04387483  0.65861521    -0.93660
O1099       O  0.39778306  0.05469440  0.72593502    -0.92450
C1100       C  0.28162423  0.04013119  0.70107044     1.16610
H1101       H  0.37368535  0.07556454  0.61710902     0.32560
H1102       H  0.37244113  0.11010923  0.73996037     0.43410
H1103       H  0.27485073  0.08971886  0.67950438     0.36930
H1104       H  0.33004223  0.17806248  0.64578449     0.33410
H1105       H  0.43968137  0.09344481  0.70964046     0.25200
H1106       H  0.34578651  0.20923930  0.74274478     0.31140
H1107       H  0.25656112  0.18585216  0.69267475     0.37050
H1108       H  0.42063686  0.04471874  0.65866929     0.31510
H1109       H  0.32227175  0.01536482  0.61828631     0.30390
H1110       H  0.27808609  0.07982957  0.58967237     0.32070
H1111       H  0.23444428  0.13840812  0.63758296     0.31030
H1112       H  0.38295638  0.05619203  0.74241078     0.35030
H1113       H  0.30418862  0.06520733  0.78656252     0.27770
H1114       H  0.36400511  0.16185562  0.55331229     0.32000
H1115       H  0.25952455  0.18420928  0.62605546     0.34850
H1116       H  0.35167190  0.02531548  0.62543715     0.27460
H1117       H  0.32875281  0.05136953  0.76866040     0.40330
H1118       H  0.41323197  0.17428313  0.70876470     0.30390
H1119       H  0.42584802  0.12179572  0.71510335     0.38000
H1120       H  0.24753007  0.10970063  0.63217688     0.29850
H1121       H  0.32864118  0.21067734  0.71005774     0.29920
H1122       H  0.33603693  0.16981771  0.56851604     0.30180
Zr1123     Zr  0.35912055  0.84808868  0.82358353     2.17510
O1124       O  0.34570359  0.82567582  0.87541167    -0.52170
O1125       O  0.40673935  0.85273364  0.83369656    -0.75380
O1126       O  0.37464184  0.80124513  0.82173976    -0.82160
O1127       O  0.33222436  0.91474852  0.85983044    -0.83910
O1128       O  0.37588107  0.78661975  0.76749570    -0.79530
O1129       O  0.36051073  0.88008673  0.87229745    -0.91170
O1130       O  0.42311206  0.88215376  0.79448594    -0.77130
O1131       O  0.38377993  0.84875363  0.77206844    -0.86620
O1132       O  0.36320113  0.89476230  0.80796265    -0.86310
O1133       O  0.33344163  0.82139592  0.78327128    -0.73070
O1134       O  0.31340368  0.86233770  0.81803236    -0.85200
Zr1135     Zr  0.31669950  0.88508293  0.71198692     2.26420
Zr1136     Zr  0.35841601  0.82294437  0.73145226     2.06270
Zr1137     Zr  0.31810383  0.90933425  0.80249400     2.10050
Zr1138     Zr  0.38743362  0.89576179  0.75752310     1.78760
O1139       O  0.27891262  0.91556165  0.83820604    -0.94010
O1140       O  0.42368787  0.88241020  0.71982870    -0.41810
O1141       O  0.34247883  0.91225728  0.75094877    -0.78450
O1142       O  0.36221251  0.87064749  0.71780613    -0.97130
O1143       O  0.31300533  0.83760856  0.72451519    -0.90440
O1144       O  0.29274857  0.88313741  0.76330741    -0.93280
C1145       C  0.42572965  0.86644045  0.81975827     1.00470
C1146       C  0.34893358  0.90307108  0.87916854     1.13400
C1147       C  0.37906605  0.78286430  0.79922907     1.04180
O1148       O  0.40028720  0.80472409  0.70954295    -0.95430
O1149       O  0.36380594  0.83288604  0.67088862    -0.91180
O1150       O  0.33168996  0.86399369  0.65987819    -0.84320
C1151       C  0.35173271  0.84932566  0.65082019     1.10820
O1152       O  0.27858693  0.80212187  0.81834175    -0.97410
Zr1153     Zr  0.28848484  0.83656929  0.77602584     1.88940
O1154       O  0.27174566  0.87184398  0.69379097    -0.74060
O1155       O  0.33391054  0.78360999  0.70876789    -0.53320
O1156       O  0.27738989  0.79295885  0.74901426    -0.98000
O1157       O  0.25009580  0.84862099  0.81098773    -0.55220
O1158       O  0.25233516  0.84886340  0.73710949    -0.74570
C1159       C  0.25133916  0.86090608  0.70854192     0.97770
O1160       O  0.32746907  0.92034378  0.67101286    -0.63390
O1161       O  0.33341814  0.95678763  0.80776931    -0.58200
O1162       O  0.28791302  0.92443504  0.71751834    -0.94880
O1163       O  0.28877192  0.93860539  0.77178080    -0.93310
O1164       O  0.40188157  0.93887650  0.78326666    -0.93660
O1165       O  0.39868673  0.93081156  0.71659044    -0.92450
C1166       C  0.28057302  0.94038495  0.74156581     1.16610
H1167       H  0.37347637  0.90597070  0.82335368     0.32560
H1168       H  0.37240594  0.87452252  0.69783671     0.43410
H1169       H  0.27486249  0.89022183  0.76190801     0.36930
H1170       H  0.33137509  0.80271503  0.79062379     0.33410
H1171       H  0.43986847  0.89166411  0.72898610     0.25200
H1172       H  0.34745252  0.77339967  0.69560075     0.31140
H1173       H  0.25768732  0.79321023  0.74619767     0.37050
H1174       H  0.42170794  0.93810583  0.78328228     0.31510
H1175       H  0.33802553  0.96241294  0.78465333     0.30390
H1176       H  0.27728958  0.89832925  0.85098871     0.32070
H1177       H  0.23456378  0.83925620  0.80036573     0.31030
H1178       H  0.38824698  0.92564789  0.69642897     0.35030
H1179       H  0.32969848  0.93751123  0.68417250     0.27770
H1180       H  0.36271042  0.82039406  0.88612064     0.32000
H1181       H  0.26068650  0.79450820  0.81261554     0.34850
H1182       H  0.35092829  0.95577584  0.81923555     0.27460
H1183       H  0.34591104  0.91613486  0.66345260     0.40330
H1184       H  0.41414790  0.81135244  0.72543478     0.30390
H1185       H  0.42643210  0.86273659  0.72436917     0.38000
H1186       H  0.24718761  0.86832860  0.80683503     0.29850
H1187       H  0.33019781  0.77190141  0.72841979     0.29920
H1188       H  0.33720669  0.80813663  0.86833107     0.30180
Zr1189     Zr  0.10149647  0.88046286  0.57724454     2.17510
O1190       O  0.08693061  0.89999725  0.63057322    -0.52170
O1191       O  0.10054213  0.83281057  0.59287045    -0.75380
O1192       O  0.05329384  0.87223278  0.58194145    -0.82160
O1193       O  0.17508424  0.89442831  0.59942789    -0.83910
O1194       O  0.03496684  0.87042629  0.52954005    -0.79530
O1195       O  0.13682089  0.87588535  0.62124703    -0.91170
O1196       O  0.12229070  0.80966966  0.55138003    -0.77130
O1197       O  0.09236253  0.85355992  0.52779678    -0.86620
O1198       O  0.14348413  0.86779620  0.55442251    -0.86310
O1199       O  0.07758946  0.90888416  0.53813371    -0.73070
O1200       O  0.12332689  0.92380501  0.56670908    -0.85200
Zr1201     Zr  0.13438607  0.91238916  0.45747189     2.26420
Zr1202     Zr  0.06930590  0.88170715  0.48819330     2.06270
Zr1203     Zr  0.16551683  0.91043270  0.54396222     2.10050
Zr1204     Zr  0.13502190  0.84092167  0.50663528     1.78760
O1205       O  0.17603240  0.95551031  0.56728579    -0.94010
O1206       O  0.11012197  0.80457398  0.47782633    -0.41810
O1207       O  0.15822530  0.88321802  0.49502023    -0.78450
O1208       O  0.11267473  0.86893293  0.46769102    -0.97130
O1209       O  0.09125989  0.92461169  0.47730115    -0.90440
O1210       O  0.14283547  0.93917356  0.50634977    -0.93280
C1211       C  0.11009277  0.81094855  0.57976701     1.00470
C1212       C  0.16225837  0.88169569  0.62244427     1.13400
C1213       C  0.03338057  0.86959585  0.56168832     1.04180
O1214       O  0.04280591  0.84210761  0.47012054    -0.95430
O1215       O  0.07355371  0.87509299  0.42647312    -0.91180
O1216       O  0.09755763  0.91285406  0.41853752    -0.84320
C1217       C  0.08753373  0.89062932  0.40700518     1.10820
O1218       O  0.07364656  0.96771411  0.57407727    -0.97410
Zr1219     Zr  0.09986420  0.95138792  0.52631250     1.88940
O1220       O  0.13344677  0.96043311  0.44060353    -0.74060
O1221       O  0.03374355  0.91208402  0.47075100    -0.53320
O1222       O  0.05701220  0.96871517  0.50721544    -0.98000
O1223       O  0.12178704  0.99025289  0.55405825    -0.55220
O1224       O  0.11235774  0.98407354  0.48225650    -0.74570
C1225       C  0.12490937  0.98286713  0.45401506     0.97770
O1226       O  0.15671793  0.88673955  0.41301950    -0.63390
O1227       O  0.21136607  0.89889094  0.55904539    -0.58200
O1228       O  0.17961521  0.92607810  0.44774986    -0.94880
O1229       O  0.19707370  0.91930694  0.49955091    -0.93310
O1230       O  0.17738892  0.82077460  0.52292551    -0.93660
O1231       O  0.16176492  0.82210121  0.46081484    -0.92450
C1232       C  0.19893594  0.92488132  0.46839102     1.16610
H1233       H  0.15348805  0.85591994  0.56867687     0.32560
H1234       H  0.11228241  0.85772190  0.44769093     0.43410
H1235       H  0.15381105  0.95511075  0.50163425     0.36930
H1236       H  0.06069828  0.91433865  0.54770199     0.33410
H1237       H  0.11982944  0.78759993  0.48320954     0.25200
H1238       H  0.02022001  0.89974459  0.46030750     0.31140
H1239       H  0.06020707  0.98852110  0.50351367     0.37050
H1240       H  0.17313497  0.80118027  0.52674917     0.31510
H1241       H  0.22231687  0.91559958  0.55498984     0.30390
H1242       H  0.19003785  0.96302161  0.55216663     0.32070
H1243       H  0.11182095  0.00649097  0.54653012     0.31030
H1244       H  0.15184550  0.82654775  0.44019063     0.35030
H1245       H  0.17233428  0.87861837  0.42412838     0.27770
H1246       H  0.07333947  0.88701383  0.63950097     0.32000
H1247       H  0.06829516  0.98660380  0.56853286     0.34850
H1248       H  0.21735846  0.88545738  0.54191042     0.27460
H1249       H  0.14505505  0.87055779  0.40893504     0.40330
H1250       H  0.04862572  0.82704457  0.48474125     0.30390
H1251       H  0.09303529  0.80296019  0.49040492     0.38000
H1252       H  0.13948433  0.99200968  0.54291441     0.29850
H1253       H  0.02526596  0.91828487  0.49194184     0.29920
H1254       H  0.07675845  0.91648649  0.62444200     0.30180
Zr1255     Zr  0.38804646  0.87859727  0.35804224     2.17510
O1256       O  0.40286231  0.89182398  0.30211417    -0.52170
O1257       O  0.38431381  0.82967666  0.34716748    -0.75380
O1258       O  0.43580318  0.86793657  0.35220721    -0.82160
O1259       O  0.31816595  0.90265254  0.33500587    -0.83910
O1260       O  0.45491932  0.86699685  0.40419064    -0.79530
O1261       O  0.35273626  0.87797441  0.31370158    -0.91170
O1262       O  0.35647734  0.81244557  0.38722190    -0.77130
O1263       O  0.39344179  0.85264299  0.40821640    -0.86620
O1264       O  0.34426804  0.87234171  0.38074018    -0.86310
O1265       O  0.41558753  0.90561811  0.39618855    -0.73070
O1266       O  0.37249402  0.92473729  0.36789734    -0.85200
Zr1267     Zr  0.36150232  0.91812898  0.47991678     2.26420
Zr1268     Zr  0.42115648  0.87892744  0.44634935     2.06270
Zr1269     Zr  0.32871426  0.91777764  0.39115849     2.10050
Zr1270     Zr  0.34935325  0.84678986  0.43009333     1.78760
O1271       O  0.31549009  0.96264327  0.37139713    -0.94010
O1272       O  0.36863652  0.80819549  0.45949070    -0.41810
O1273       O  0.33303655  0.89173271  0.44119384    -0.78450
O1274       O  0.37660230  0.87232976  0.46799200    -0.97130
O1275       O  0.40553769  0.92444020  0.45785809    -0.90440
O1276       O  0.35599338  0.94465175  0.42858745    -0.93280
C1277       C  0.37043537  0.81025624  0.36035045     1.00470
C1278       C  0.32896516  0.88830671  0.31167924     1.13400
C1279       C  0.45600415  0.86556294  0.37197394     1.04180
O1280       O  0.44105094  0.83523158  0.46049224    -0.95430
O1281       O  0.41723881  0.87215989  0.50788756    -0.91180
O1282       O  0.39728546  0.91158401  0.51992297    -0.84320
C1283       C  0.40495814  0.88787149  0.52891703     1.10820
O1284       O  0.42862739  0.96401598  0.36129167    -0.97410
Zr1285     Zr  0.39974905  0.95051635  0.40791717     1.88940
O1286       O  0.36745175  0.96654747  0.49308730    -0.74060
O1287       O  0.46049898  0.90407579  0.46613819    -0.53320
O1288       O  0.44436781  0.96321228  0.42768509    -0.98000
O1289       O  0.38306067  0.98949241  0.37676982    -0.55220
O1290       O  0.39066117  0.98631748  0.45012553    -0.74570
C1291       C  0.37802497  0.98736541  0.47831142     0.97770
O1292       O  0.33375866  0.89324347  0.52049940    -0.63390
O1293       O  0.28013378  0.91277022  0.38918321    -0.58200
O1294       O  0.31992568  0.93731945  0.50063265    -0.94880
O1295       O  0.32406332  0.92820043  0.44893456    -0.93310
O1296       O  0.30403481  0.83284549  0.41446612    -0.93660
O1297       O  0.32047421  0.83281921  0.47651597    -0.92450
C1298       C  0.30868248  0.93492389  0.47253178     1.16610
H1299       H  0.33243794  0.86161520  0.36662436     0.32560
H1300       H  0.37568307  0.86109314  0.48767848     0.43410
H1301       H  0.34899994  0.96307552  0.43102521     0.36930
H1302       H  0.43277987  0.90968457  0.38631279     0.33410
H1303       H  0.35742389  0.79219991  0.45282517     0.25200
H1304       H  0.47304237  0.88967204  0.47317634     0.31140
H1305       H  0.44341143  0.98307387  0.43276960     0.37050
H1306       H  0.30434024  0.81256172  0.41406764     0.31510
H1307       H  0.27462445  0.92235523  0.36862559     0.30390
H1308       H  0.30513552  0.97057530  0.39029476     0.32070
H1309       H  0.39201850  0.00574281  0.38692304     0.31030
H1310       H  0.33217581  0.83267390  0.49646180     0.35030
H1311       H  0.31736176  0.88730301  0.50843544     0.27770
H1312       H  0.41690423  0.87868481  0.29537642     0.32000
H1313       H  0.43582668  0.98241517  0.36721004     0.34850
H1314       H  0.27695428  0.89309781  0.38413802     0.27460
H1315       H  0.34305625  0.87575933  0.52401313     0.40330
H1316       H  0.43519050  0.82248616  0.44245434     0.30390
H1317       H  0.38608756  0.80507047  0.44826638     0.38000
H1318       H  0.36404166  0.99116414  0.38356599     0.29850
H1319       H  0.46873553  0.91180858  0.44562452     0.29920
H1320       H  0.41238333  0.90954538  0.30532725     0.30180
Zr1321     Zr  0.13297386  0.13495111  0.32163021     2.17510
O1322       O  0.14573585  0.15385390  0.37603897    -0.52170
O1323       O  0.08510931  0.12938169  0.33269901    -0.75380
O1324       O  0.11880312  0.18278100  0.32571059    -0.82160
O1325       O  0.16050622  0.06589506  0.34603556    -0.83910
O1326       O  0.11533974  0.19884723  0.27263006    -0.79530
O1327       O  0.13455089  0.09997900  0.36680103    -0.91170
O1328       O  0.06875001  0.10031269  0.29269728    -0.77130
O1329       O  0.10732501  0.13740929  0.27139144    -0.86620
O1330       O  0.12834738  0.08949602  0.30020055    -0.86310
O1331       O  0.15877646  0.16357994  0.28358185    -0.73070
O1332       O  0.17844685  0.12079947  0.31057465    -0.85200
Zr1333     Zr  0.17244365  0.10495958  0.20132290     2.26420
Zr1334     Zr  0.13274265  0.16528681  0.23330854     2.06270
Zr1335     Zr  0.17299083  0.07521312  0.28915249     2.10050
Zr1336     Zr  0.10300967  0.09155120  0.25105453     1.78760
O1337       O  0.21322907  0.06776740  0.32192129    -0.94010
O1338       O  0.06515767  0.10843123  0.21919251    -0.41810
O1339       O  0.14744575  0.07549353  0.23865869    -0.78450
O1340       O  0.12749652  0.11900105  0.21342357    -0.97130
O1341       O  0.17748979  0.15119863  0.22026870    -0.90440
O1342       O  0.19770627  0.10319015  0.25151211    -0.93280
C1343       C  0.06624053  0.11491661  0.31934876     1.00470
C1344       C  0.14583054  0.07630214  0.36916035     1.13400
C1345       C  0.11360107  0.20177976  0.30457091     1.04180
O1346       O  0.09260690  0.18841532  0.21456392    -0.95430
O1347       O  0.12372222  0.16037235  0.17380931    -0.91180
O1348       O  0.15465731  0.13034091  0.15348034    -0.84320
C1349       C  0.13424210  0.14607208  0.15010427     1.10820
O1350       O  0.21609447  0.18070203  0.31475197    -0.97410
Zr1351     Zr  0.20316786  0.14851845  0.27043017     1.88940
O1352       O  0.21830428  0.11656444  0.18454681    -0.74060
O1353       O  0.15929071  0.20464797  0.21519768    -0.53320
O1354       O  0.21399144  0.19341546  0.24750580    -0.98000
O1355       O  0.24131898  0.13289265  0.30274890    -0.55220
O1356       O  0.23855165  0.13781264  0.22887465    -0.74570
C1357       C  0.23915655  0.12612040  0.19975412     0.97770
O1358       O  0.16178028  0.07634439  0.15246837    -0.63390
O1359       O  0.15816933  0.02747267  0.28963877    -0.58200
O1360       O  0.19933050  0.06370666  0.20096846    -0.94880
O1361       O  0.20071481  0.04723585  0.25387632    -0.93310
O1362       O  0.09107502  0.04571322  0.27004710    -0.93660
O1363       O  0.08919387  0.06152179  0.20505367    -0.92450
C1364       C  0.20748171  0.04663133  0.22294415     1.16610
H1365       H  0.11857774  0.07734933  0.31490874     0.32560
H1366       H  0.11636792  0.11658505  0.19398744     0.43410
H1367       H  0.21531605  0.09566635  0.24825007     0.36930
H1368       H  0.16125675  0.18174764  0.29287353     0.33410
H1369       H  0.04938316  0.09822896  0.22794308     0.25200
H1370       H  0.14731339  0.21464099  0.19996964     0.31140
H1371       H  0.23342463  0.19282815  0.24243044     0.37050
H1372       H  0.07129340  0.04473411  0.26832722     0.31510
H1373       H  0.16989009  0.01856176  0.30615126     0.30390
H1374       H  0.21146225  0.04867980  0.32990365     0.32070
H1375       H  0.25715609  0.14195853  0.29246529     0.31030
H1376       H  0.10277163  0.06468700  0.18729040     0.35030
H1377       H  0.16129293  0.05726826  0.16068637     0.27770
H1378       H  0.12880787  0.16045468  0.38615817     0.32000
H1379       H  0.23424547  0.18745557  0.30862964     0.34850
H1380       H  0.14028490  0.02775239  0.30049172     0.27460
H1381       H  0.14278215  0.08012737  0.14734561     0.40330
H1382       H  0.07756605  0.17761418  0.22418425     0.30390
H1383       H  0.06266047  0.12744407  0.22737626     0.38000
H1384       H  0.24318505  0.11330480  0.29662251     0.29850
H1385       H  0.16064860  0.21655361  0.23535599     0.29920
H1386       H  0.15617698  0.17069905  0.37095007     0.30180
Zr1387     Zr  0.12998835  0.84427355  0.11041923     2.17510
O1388       O  0.14227096  0.81987309  0.05920111    -0.52170
O1389       O  0.08222322  0.84804812  0.10109052    -0.75380
O1390       O  0.11460956  0.79716206  0.11545807    -0.82160
O1391       O  0.16524744  0.89608325  0.06726774    -0.83910
O1392       O  0.11594293  0.78513657  0.17046180    -0.79530
O1393       O  0.12567618  0.87524324  0.06188317    -0.91170
O1394       O  0.06865250  0.88390477  0.13353391    -0.77130
O1395       O  0.10590181  0.84792265  0.16214060    -0.86620
O1396       O  0.12681372  0.89208063  0.12297119    -0.86310
O1397       O  0.15648172  0.82081626  0.15202788    -0.73070
O1398       O  0.17625665  0.85916314  0.11483680    -0.85200
Zr1399     Zr  0.17363699  0.88936066  0.21877510     2.26420
Zr1400     Zr  0.13170123  0.82488040  0.20364088     2.06270
Zr1401     Zr  0.17221017  0.90707161  0.12608489     2.10050
Zr1402     Zr  0.10312198  0.89579527  0.17353794     1.78760
O1403       O  0.21027381  0.91967769  0.09090440    -0.94010
O1404       O  0.06490148  0.88195365  0.20793972    -0.41810
O1405       O  0.14821092  0.91346428  0.17770110    -0.78450
O1406       O  0.12818853  0.87319431  0.21435992    -0.97130
O1407       O  0.17708876  0.84119813  0.20972763    -0.90440
O1408       O  0.19777310  0.88443550  0.16767876    -0.93280
C1409       C  0.06483476  0.86560116  0.11079400     1.00470
C1410       C  0.14229759  0.89428973  0.05325884     1.13400
C1411       C  0.11199867  0.77963508  0.13915935     1.04180
O1412       O  0.08846831  0.80879734  0.22470753    -0.95430
O1413       O  0.12721978  0.83666972  0.26356057    -0.91180
O1414       O  0.15676563  0.87175441  0.27195879    -0.84320
C1415       C  0.13842928  0.85509419  0.28241943     1.10820
O1416       O  0.21168654  0.80137194  0.11740002    -0.97410
Zr1417     Zr  0.20163045  0.83709172  0.15859207     1.88940
O1418       O  0.21825373  0.87812761  0.23807352    -0.74060
O1419       O  0.15485545  0.78824836  0.23209986    -0.53320
O1420       O  0.21202249  0.79419316  0.18612359    -0.98000
O1421       O  0.24071118  0.84880541  0.12443790    -0.55220
O1422       O  0.23725995  0.85024270  0.19891916    -0.74570
C1423       C  0.23837077  0.86515830  0.22578747     0.97770
O1424       O  0.16475452  0.92565991  0.25979474    -0.63390
O1425       O  0.15288666  0.95135572  0.11296391    -0.58200
O1426       O  0.20111066  0.93010144  0.20911003    -0.94880
O1427       O  0.20167861  0.93907972  0.15350845    -0.93310
O1428       O  0.09048760  0.93968683  0.15018373    -0.93660
O1429       O  0.09210888  0.92941095  0.21677806    -0.92450
C1430       C  0.20875895  0.94419688  0.18361976     1.16610
H1431       H  0.11655847  0.90283936  0.10760267     0.32560
H1432       H  0.11790672  0.87761962  0.23411489     0.43410
H1433       H  0.21569331  0.89198443  0.16904321     0.36930
H1434       H  0.15867562  0.80184327  0.14576282     0.33410
H1435       H  0.04967473  0.89253316  0.19919350     0.25200
H1436       H  0.14057974  0.77474305  0.23759661     0.31140
H1437       H  0.23182888  0.79404324  0.18751362     0.37050
H1438       H  0.07068004  0.93991185  0.15184402     0.31510
H1439       H  0.14866994  0.95973312  0.13502661     0.30390
H1440       H  0.22167446  0.90321270  0.09056529     0.32070
H1441       H  0.25582324  0.83927549  0.13509211     0.31030
H1442       H  0.10968534  0.93600964  0.22519273     0.35030
H1443       H  0.16312605  0.94269817  0.24673032     0.27770
H1444       H  0.12524883  0.81181637  0.05080669     0.32000
H1445       H  0.22979102  0.79473526  0.12298160     0.34850
H1446       H  0.13518783  0.94724495  0.10291765     0.27460
H1447       H  0.14623215  0.92212515  0.26781577     0.40330
H1448       H  0.07571784  0.81236052  0.20636786     0.30390
H1449       H  0.06096576  0.86280139  0.20102179     0.38000
H1450       H  0.24428084  0.86846802  0.12903314     0.29850
H1451       H  0.16566622  0.77925305  0.21442079     0.29920
H1452       H  0.15275171  0.80400785  0.06681294     0.30180
Zr1453     Zr  0.09819963  0.10046274  0.86037783     2.17510
O1454       O  0.08176558  0.08519100  0.80588193    -0.52170
O1455       O  0.10215912  0.14921208  0.84905287    -0.75380
O1456       O  0.05105547  0.11247026  0.85561289    -0.82160
O1457       O  0.16946957  0.07819695  0.83584962    -0.83910
O1458       O  0.03297228  0.11532936  0.90824914    -0.79530
O1459       O  0.13446411  0.10315745  0.81677659    -0.91170
O1460       O  0.12736153  0.16850538  0.89062488    -0.77130
O1461       O  0.09364164  0.12745361  0.91041130    -0.86620
O1462       O  0.14161490  0.10691467  0.88271408    -0.86310
O1463       O  0.07084036  0.07380563  0.89903234    -0.73070
O1464       O  0.11294126  0.05430000  0.87039902    -0.85200
Zr1465     Zr  0.12693049  0.06338489  0.97982966     2.26420
Zr1466     Zr  0.06657605  0.10155583  0.94897589     2.06270
Zr1467     Zr  0.15715684  0.06174138  0.89115664     2.10050
Zr1468     Zr  0.13803305  0.13383270  0.93104434     1.78760
O1469       O  0.16333757  0.02057725  0.85727439    -0.94010
O1470       O  0.12039004  0.17172631  0.96434787    -0.41810
O1471       O  0.15516376  0.08897949  0.94172611    -0.78450
O1472       O  0.11151582  0.10849509  0.96804465    -0.97130
O1473       O  0.08211546  0.05630217  0.96138708    -0.90440
O1474       O  0.13091818  0.03597237  0.93044940    -0.93280
C1475       C  0.11394312  0.16964304  0.86343146     1.00470
C1476       C  0.15880663  0.09417234  0.81443066     1.13400
C1477       C  0.03141838  0.11632999  0.87610970     1.04180
O1478       O  0.04384307  0.14367608  0.96473059    -0.95430
O1479       O  0.07193848  0.11287904  0.00899403    -0.91180
O1480       O  0.10403621  0.08398140  0.02775679    -0.84320
C1481       C  0.08778466  0.10397397  0.03183547     1.10820
O1482       O  0.05457089  0.01478643  0.86903203    -0.97410
Zr1483     Zr  0.08677848  0.02886926  0.91181564     1.88940
O1484       O  0.11882285  0.01583620  0.99554574    -0.74060
O1485       O  0.02866743  0.07487014  0.96996345    -0.53320
O1486       O  0.04392331  0.01619194  0.93715852    -0.98000
O1487       O  0.10234028  0.99021595  0.87818558    -0.55220
O1488       O  0.09966244  0.99287648  0.95211758    -0.74570
C1489       C  0.11147406  0.99348379  0.98085104     0.97770
O1490       O  0.14566568  0.06557607  0.03618871    -0.63390
O1491       O  0.20403185  0.07589384  0.88564121    -0.58200
O1492       O  0.17482560  0.05698742  0.97831196    -0.94880
O1493       O  0.18264479  0.03515644  0.92920783    -0.93310
O1494       O  0.18236407  0.14932858  0.91327607    -0.93660
O1495       O  0.16687458  0.14695135  0.97772581    -0.92450
C1496       C  0.18988372  0.04381753  0.95787288     1.16610
H1497       H  0.15340545  0.11781924  0.86904114     0.32560
H1498       H  0.11388834  0.12090328  0.98665703     0.43410
H1499       H  0.13910665  0.01850341  0.93432019     0.36930
H1500       H  0.05339333  0.07020458  0.88955741     0.33410
H1501       H  0.12947860  0.18828038  0.95542085     0.25200
H1502       H  0.01763390  0.08833132  0.98239431     0.31140
H1503       H  0.04535415  0.99638039  0.94185988     0.37050
H1504       H  0.18116116  0.16955760  0.91272543     0.31510
H1505       H  0.21482593  0.05926264  0.88901310     0.30390
H1506       H  0.18295528  0.01771099  0.85720630     0.32070
H1507       H  0.09343123  0.97392734  0.88805571     0.31030
H1508       H  0.16798870  0.13024018  0.99151043     0.35030
H1509       H  0.15626979  0.04875184  0.03881082     0.27770
H1510       H  0.07425905  0.10178089  0.79555352     0.32000
H1511       H  0.04843185  0.99615235  0.87530559     0.34850
H1512       H  0.20760716  0.08764007  0.90549802     0.27460
H1513       H  0.15911734  0.08066122  0.03560990     0.40330
H1514       H  0.05203282  0.15790976  0.95028118     0.30390
H1515       H  0.10153913  0.17337676  0.95708558     0.38000
H1516       H  0.12145048  0.98831849  0.88420377     0.29850
H1517       H  0.01802490  0.07026869  0.94976324     0.29920
H1518       H  0.06598183  0.07341863  0.81092403     0.30180
Zr1519     Zr  0.39265235  0.10714138  0.07470839     2.17510
O1520       O  0.40878774  0.09466343  0.12994694    -0.52170
O1521       O  0.38889428  0.15601662  0.08562504    -0.75380
O1522       O  0.44081818  0.11827866  0.07946678    -0.82160
O1523       O  0.32171168  0.08210508  0.09838849    -0.83910
O1524       O  0.45934939  0.11656451  0.02705909    -0.79530
O1525       O  0.35612607  0.10850504  0.11822928    -0.91170
O1526       O  0.36322882  0.17289607  0.04401573    -0.77130
O1527       O  0.39851398  0.13232636  0.02384358    -0.86620
O1528       O  0.34931642  0.11297541  0.05154368    -0.86310
O1529       O  0.41934226  0.07893939  0.03726734    -0.73070
O1530       O  0.37612177  0.06093989  0.06578634    -0.85200
Zr1531     Zr  0.36492062  0.06493964  0.95578679     2.26420
Zr1532     Zr  0.42492483  0.10476290  0.98631869     2.06270
Zr1533     Zr  0.33282911  0.06756618  0.04231923     2.10050
Zr1534     Zr  0.35470482  0.13796909  0.00200251     1.78760
O1535       O  0.32209525  0.02685653  0.07471040    -0.94010
O1536       O  0.37495582  0.17537176  0.97033144    -0.41810
O1537       O  0.33708172  0.09288876  0.99143440    -0.78450
O1538       O  0.38054141  0.11106285  0.96491525    -0.97130
O1539       O  0.40883897  0.05882125  0.97672820    -0.90440
O1540       O  0.35920605  0.03964918  0.00608965    -0.93280
C1541       C  0.37625654  0.17548077  0.07149222     1.00470
C1542       C  0.33221382  0.09783416  0.12068621     1.13400
C1543       C  0.46101399  0.11924881  0.05907483     1.04180
O1544       O  0.44710640  0.14795760  0.97259018    -0.95430
O1545       O  0.42072309  0.11222911  0.92576604    -0.91180
O1546       O  0.39650449  0.07486502  0.91095324    -0.84320
C1547       C  0.40813003  0.09759946  0.90378431     1.10820
O1548       O  0.43167989  0.02190586  0.07374569    -0.97410
Zr1549     Zr  0.40261573  0.03363391  0.02719450     1.88940
O1550       O  0.36820539  0.01581378  0.94524644    -0.74060
O1551       O  0.46195803  0.07967418  0.96132030    -0.53320
O1552       O  0.44661506  0.01907230  0.00771693    -0.98000
O1553       O  0.38327225  0.99646982  0.06017050    -0.55220
O1554       O  0.39262910  0.99668599  0.98670249    -0.74570
C1555       C  0.37895345  0.99517495  0.95948000     0.97770
O1556       O  0.34877328  0.06770640  0.89829787    -0.63390
O1557       O  0.28647647  0.08281184  0.04278772    -0.58200
O1558       O  0.31720026  0.05982297  0.95286840    -0.94880
O1559       O  0.30655270  0.04149766  0.00310740    -0.93310
O1560       O  0.30986140  0.15240588  0.01821671    -0.93660
O1561       O  0.32752027  0.15217665  0.95485269    -0.92450
C1562       C  0.30091575  0.04848045  0.97334619     1.16610
H1563       H  0.33750656  0.12375267  0.06544465     0.32560
H1564       H  0.37881402  0.12153010  0.94471035     0.43410
H1565       H  0.35029949  0.02215952  0.00308966     0.36930
H1566       H  0.43636392  0.07513632  0.04733039     0.33410
H1567       H  0.36531907  0.19194517  0.97794210     0.25200
H1568       H  0.47751670  0.09238444  0.96288247     0.31140
H1569       H  0.44496080  0.99896639  0.00467826     0.37050
H1570       H  0.31109880  0.17264089  0.01981105     0.31510
H1571       H  0.27751628  0.07212156  0.06067590     0.30390
H1572       H  0.30225677  0.02599337  0.07516345     0.32070
H1573       H  0.39242546  0.97975995  0.05206481     0.31030
H1574       H  0.32869221  0.13682052  0.93853878     0.35030
H1575       H  0.33786198  0.05091015  0.89442152     0.27770
H1576       H  0.41713412  0.11161371  0.13915584     0.32000
H1577       H  0.43654387  0.00249002  0.07008486     0.34850
H1578       H  0.28724389  0.10183404  0.05160287     0.27460
H1579       H  0.33582272  0.08293658  0.89832668     0.40330
H1580       H  0.44118499  0.16096586  0.99023755     0.30390
H1581       H  0.39317426  0.17761544  0.97974819     0.38000
H1582       H  0.36466964  0.99433582  0.05196276     0.29850
H1583       H  0.46579746  0.06490994  0.97734283     0.29920
H1584       H  0.42395769  0.08219889  0.12557647     0.30180
Zr1585     Zr  0.12817677  0.41912610  0.47720029     2.17510
O1586       O  0.14675145  0.41871889  0.53375097    -0.52170
O1587       O  0.11776648  0.46551903  0.49484774    -0.75380
O1588       O  0.17466925  0.43225187  0.47606739    -0.82160
O1589       O  0.07920513  0.36323884  0.50453063    -0.83910
O1590       O  0.17884083  0.45253829  0.42602014    -0.79530
O1591       O  0.10967669  0.39420026  0.52433525    -0.91170
O1592       O  0.10226212  0.48815431  0.44981273    -0.77130
O1593       O  0.13109972  0.44661679  0.42852047    -0.86620
O1594       O  0.08305883  0.42543942  0.46042945    -0.86310
O1595       O  0.15502637  0.39315165  0.43757976    -0.73070
O1596       O  0.11224719  0.37383056  0.46559240    -0.85200
Zr1597     Zr  0.09655686  0.38082328  0.35806225     2.26420
Zr1598     Zr  0.15642774  0.42120411  0.38815901     2.06270
Zr1599     Zr  0.06722970  0.37973512  0.44849066     2.10050
Zr1600     Zr  0.08655752  0.45209806  0.41054615     1.78760
O1601       O  0.04183088  0.33855365  0.46293269    -0.94010
O1602       O  0.10088753  0.49010186  0.37536362    -0.41810
O1603       O  0.07047288  0.40647382  0.39850065    -0.78450
O1604       O  0.11191880  0.42725315  0.36805983    -0.97130
O1605       O  0.14043856  0.37579820  0.37808877    -0.90440
O1606       O  0.09223295  0.35410452  0.40781069    -0.93280
C1607       C  0.11234146  0.48768885  0.47946450     1.00470
C1608       C  0.09511922  0.37254697  0.52738152     1.13400
C1609       C  0.18833844  0.44505911  0.45394285     1.04180
O1610       O  0.16089703  0.46041948  0.35122303    -0.95430
O1611       O  0.16905026  0.40105949  0.33486209    -0.91180
O1612       O  0.13310341  0.37660053  0.31556152    -0.84320
C1613       C  0.15775366  0.38506971  0.31340054     1.10820
O1614       O  0.17293295  0.33178749  0.46173810    -0.97410
Zr1615     Zr  0.13713833  0.34807537  0.42587320     1.88940
O1616       O  0.09920262  0.33221350  0.34437216    -0.74060
O1617       O  0.20410957  0.41199601  0.38133576    -0.53320
O1618       O  0.18003365  0.33263622  0.40401196    -0.98000
O1619       O  0.11830851  0.31385436  0.46367867    -0.55220
O1620       O  0.12464321  0.31312446  0.38485803    -0.74570
C1621       C  0.11084367  0.31175350  0.35783217     0.97770
O1622       O  0.07872730  0.39641960  0.30490558    -0.63390
O1623       O  0.03112364  0.40460296  0.47611583    -0.58200
O1624       O  0.04925957  0.36939856  0.35497736    -0.94880
O1625       O  0.03261390  0.36754777  0.40838154    -0.93310
O1626       O  0.04448994  0.46626696  0.43623689    -0.93660
O1627       O  0.05252497  0.46523833  0.37045200    -0.92450
C1628       C  0.03026670  0.36596795  0.37642661     1.16610
H1629       H  0.07292227  0.43451147  0.47788041     0.32560
H1630       H  0.11213834  0.43724119  0.34727785     0.43410
H1631       H  0.08271709  0.33699340  0.40427847     0.36930
H1632       H  0.17286943  0.39011772  0.44567424     0.33410
H1633       H  0.09159851  0.50626978  0.38480806     0.25200
H1634       H  0.21383101  0.42895629  0.38798506     0.31140
H1635       H  0.17739983  0.31284488  0.39915585     0.37050
H1636       H  0.04678891  0.48618530  0.44041032     0.31510
H1637       H  0.01454395  0.39765693  0.46528453     0.30390
H1638       H  0.02683929  0.34510889  0.47711630     0.32070
H1639       H  0.12048815  0.29618402  0.45163894     0.31030
H1640       H  0.05212502  0.45004805  0.35383809     0.35030
H1641       H  0.06421755  0.40916251  0.31124555     0.27770
H1642       H  0.14934318  0.43812370  0.54040286     0.32000
H1643       H  0.17002587  0.31177199  0.46394455     0.34850
H1644       H  0.03038744  0.39707938  0.49905901     0.27460
H1645       H  0.09294575  0.40843734  0.29548582     0.40330
H1646       H  0.18008575  0.46570759  0.35257722     0.30390
H1647       H  0.11997191  0.49317661  0.38113777     0.38000
H1648       H  0.09875006  0.31704466  0.46349802     0.29850
H1649       H  0.20832176  0.39840872  0.39871328     0.29920
H1650       H  0.16506813  0.41126074  0.53178213     0.30180
Zr1651     Zr  0.36267506  0.41294724  0.45555298     2.17510
O1652       O  0.34468587  0.40016259  0.40072520    -0.52170
O1653       O  0.36892266  0.46059107  0.44113997    -0.75380
O1654       O  0.31720854  0.42715132  0.44899792    -0.82160
O1655       O  0.41649680  0.36748774  0.42735676    -0.83910
O1656       O  0.30001313  0.42899368  0.50190596    -0.79530
O1657       O  0.39410212  0.40460263  0.41077837    -0.91170
O1658       O  0.38698368  0.48351607  0.48545590    -0.77130
O1659       O  0.35482065  0.43872013  0.50533432    -0.86620
O1660       O  0.40595852  0.42347482  0.47683705    -0.86310
O1661       O  0.33619033  0.38326475  0.49069885    -0.73070
O1662       O  0.38188151  0.36897526  0.46450449    -0.85200
Zr1663     Zr  0.39151764  0.37502942  0.57409825     2.26420
Zr1664     Zr  0.32998789  0.40906100  0.54147633     2.06270
Zr1665     Zr  0.42498725  0.37936296  0.48647393     2.10050
Zr1666     Zr  0.39779826  0.44846080  0.52734670     1.78760
O1667       O  0.45244906  0.34033064  0.47075761    -0.94010
O1668       O  0.37617296  0.48507574  0.55890193    -0.41810
O1669       O  0.41730435  0.40449213  0.53756069    -0.78450
O1670       O  0.37250300  0.41962960  0.56558966    -0.97130
O1671       O  0.34905057  0.36539012  0.55066118    -0.90440
O1672       O  0.39996967  0.35009928  0.52329543    -0.93280
C1673       C  0.37712449  0.48264973  0.45566928     1.00470
C1674       C  0.40561543  0.38190990  0.40440267     1.13400
C1675       C  0.29854391  0.43176915  0.47017210     1.04180
O1676       O  0.31979409  0.45058797  0.57308411    -0.95430
O1677       O  0.31930769  0.39129536  0.59632571    -0.91180
O1678       O  0.35570503  0.36975321  0.61692181    -0.84320
C1679       C  0.33101382  0.37729560  0.61887359     1.10820
O1680       O  0.33382824  0.32450139  0.45020783    -0.97410
Zr1681     Zr  0.35684540  0.34004063  0.50088077     1.88940
O1682       O  0.38809232  0.32652433  0.58701949    -0.74060
O1683       O  0.28421380  0.39211977  0.54940619    -0.53320
O1684       O  0.31154049  0.32419729  0.51402559    -0.98000
O1685       O  0.38035027  0.30266923  0.47284430    -0.55220
O1686       O  0.36425999  0.30689436  0.54467333    -0.74570
C1687       C  0.37596147  0.30602876  0.57320014     0.97770
O1688       O  0.40810440  0.39143460  0.62812692    -0.63390
O1689       O  0.46103768  0.40804151  0.46411376    -0.58200
O1690       O  0.43903134  0.36649550  0.57990951    -0.94880
O1691       O  0.45857097  0.36946591  0.52815439    -0.93310
O1692       O  0.44186635  0.46575833  0.51088573    -0.93660
O1693       O  0.42490754  0.46444412  0.57431437    -0.92450
C1694       C  0.45932235  0.36628566  0.56000029     1.16610
H1695       H  0.41633501  0.43417035  0.46106777     0.32560
H1696       H  0.37017855  0.42891559  0.58687075     0.43410
H1697       H  0.40999876  0.33365385  0.52733122     0.36930
H1698       H  0.31909262  0.37949124  0.48044542     0.33410
H1699       H  0.38623297  0.50190633  0.55271006     0.25200
H1700       H  0.27271830  0.40852180  0.55010543     0.31140
H1701       H  0.31139583  0.30436238  0.50864697     0.37050
H1702       H  0.43953370  0.48575856  0.50842904     0.31510
H1703       H  0.47767863  0.39998915  0.47291590     0.30390
H1704       H  0.46650859  0.34800873  0.45585109     0.32070
H1705       H  0.39332588  0.29594130  0.48945714     0.31030
H1706       H  0.42208959  0.45040938  0.59176809     0.35030
H1707       H  0.42316132  0.40402763  0.62262217     0.27770
H1708       H  0.33703315  0.41704239  0.39129688     0.32000
H1709       H  0.33092364  0.30452206  0.45274550     0.34850
H1710       H  0.46142128  0.40371527  0.43983059     0.27460
H1711       H  0.39396001  0.40368056  0.63686560     0.40330
H1712       H  0.31012106  0.46225657  0.55710434     0.30390
H1713       H  0.35849014  0.48711455  0.54812503     0.38000
H1714       H  0.39160989  0.31175773  0.45562512     0.29850
H1715       H  0.27953525  0.38253435  0.52824980     0.29920
H1716       H  0.32913355  0.38795910  0.40524218     0.30180
Zr1717     Zr  0.31336151  0.60200521  0.20531744     2.17510
O1718       O  0.32218725  0.57601889  0.15408763    -0.52170
O1719       O  0.26675758  0.61180436  0.19183832    -0.75380
O1720       O  0.29069639  0.55783192  0.20732395    -0.82160
O1721       O  0.36303462  0.65433528  0.17329852    -0.83910
O1722       O  0.27931696  0.55322267  0.26169665    -0.79530
O1723       O  0.32620096  0.63033338  0.15828411    -0.91170
O1724       O  0.24860390  0.63260285  0.23774249    -0.77130
O1725       O  0.29018273  0.59846262  0.25686805    -0.86620
O1726       O  0.30800411  0.64773940  0.22524133    -0.86310
O1727       O  0.34180430  0.57392798  0.23909926    -0.73070
O1728       O  0.35814556  0.61919499  0.21211043    -0.85200
Zr1729     Zr  0.35702008  0.63279486  0.32124272     2.26420
Zr1730     Zr  0.31776386  0.57112609  0.29113327     2.06270
Zr1731     Zr  0.35296701  0.66466660  0.23256786     2.10050
Zr1732     Zr  0.28500714  0.64328194  0.27746531     1.78760
O1733       O  0.39360904  0.68938058  0.21633740    -0.94010
O1734       O  0.24858509  0.62497295  0.31172610    -0.41810
O1735       O  0.32979416  0.66020490  0.28509287    -0.78450
O1736       O  0.31179360  0.61585965  0.31484117    -0.97130
O1737       O  0.36204920  0.58845534  0.29829977    -0.90440
O1738       O  0.38047482  0.63854588  0.26915432    -0.93280
C1739       C  0.24677671  0.62158162  0.20835344     1.00470
C1740       C  0.34866055  0.64188754  0.15103680     1.13400
C1741       C  0.27766231  0.54592840  0.23094964     1.04180
O1742       O  0.28615105  0.55412673  0.33288382    -0.95430
O1743       O  0.33755844  0.55906445  0.34385690    -0.91180
O1744       O  0.36224799  0.59548504  0.36273717    -0.84320
C1745       C  0.35384087  0.57035700  0.36465392     1.10820
O1746       O  0.39929373  0.56791092  0.19740661    -0.97410
Zr1747     Zr  0.38611282  0.59336469  0.24763534     1.88940
O1748       O  0.40468348  0.62910254  0.33117473    -0.74060
O1749       O  0.33183353  0.52423775  0.27949771    -0.53320
O1750       O  0.40035452  0.54705595  0.26023438    -0.98000
O1751       O  0.42221096  0.61607427  0.21665100    -0.55220
O1752       O  0.42062102  0.60108504  0.29011584    -0.74570
C1753       C  0.42344558  0.61517292  0.31732272     0.97770
O1754       O  0.34433253  0.65022984  0.37644767    -0.63390
O1755       O  0.32779609  0.70238395  0.20910080    -0.58200
O1756       O  0.36766099  0.68138033  0.32582943    -0.94880
O1757       O  0.36447390  0.69979981  0.27356262    -0.93310
O1758       O  0.27178096  0.68878671  0.25983319    -0.93660
O1759       O  0.27352673  0.67353250  0.32405692    -0.92450
C1760       C  0.36826964  0.70151419  0.30530002     1.16610
H1761       H  0.29799996  0.65849034  0.20952581     0.32560
H1762       H  0.30315692  0.61451599  0.33649093     0.43410
H1763       H  0.39740806  0.64804097  0.27205936     0.36930
H1764       H  0.34339595  0.55604422  0.22876620     0.33410
H1765       H  0.23233688  0.63429043  0.30369629     0.25200
H1766       H  0.32476243  0.51351104  0.29859751     0.31140
H1767       H  0.42015496  0.54772042  0.25868099     0.37050
H1768       H  0.25204225  0.68759889  0.25760661     0.31510
H1769       H  0.33577229  0.71910641  0.21936842     0.30390
H1770       H  0.38722035  0.70523684  0.20343835     0.32070
H1771       H  0.43199893  0.62735357  0.23342502     0.31030
H1772       H  0.28894140  0.67234434  0.33947401     0.35030
H1773       H  0.33253400  0.66593659  0.37196866     0.27770
H1774       H  0.30434556  0.57057643  0.14539513     0.32000
H1775       H  0.41870606  0.56441278  0.19975251     0.34850
H1776       H  0.33347139  0.70307384  0.18531548     0.27460
H1777       H  0.33209235  0.63609261  0.38577594     0.40330
H1778       H  0.27278728  0.56884861  0.33534376     0.30390
H1779       H  0.24635830  0.60575539  0.30397903     0.38000
H1780       H  0.41309523  0.62957451  0.20241314     0.29850
H1781       H  0.32108015  0.51785127  0.26011685     0.29920
H1782       H  0.33033301  0.55872237  0.16155123     0.30180
Zr1783     Zr  0.31354028  0.38408629  0.22920633     2.17510
O1784       O  0.30900635  0.41028936  0.28131571    -0.52170
O1785       O  0.26872057  0.36849740  0.24501677    -0.75380
O1786       O  0.29338713  0.42906614  0.22543499    -0.82160
O1787       O  0.36594712  0.33122927  0.25945219    -0.83910
O1788       O  0.28048675  0.43234967  0.17162466    -0.79530
O1789       O  0.34038561  0.36728734  0.27577888    -0.91170
O1790       O  0.24855108  0.35461518  0.19681227    -0.77130
O1791       O  0.29040389  0.38655665  0.17774455    -0.86620
O1792       O  0.30750649  0.33777201  0.21054898    -0.86310
O1793       O  0.34157487  0.41243541  0.19381659    -0.73070
O1794       O  0.35751612  0.36709282  0.22018990    -0.85200
Zr1795     Zr  0.35723305  0.35202092  0.11280746     2.26420
Zr1796     Zr  0.31785506  0.41340053  0.14167404     2.06270
Zr1797     Zr  0.35220735  0.32106721  0.20163076     2.10050
Zr1798     Zr  0.28478670  0.34136876  0.15812558     1.78760
O1799       O  0.39122158  0.29516925  0.21860873    -0.94010
O1800       O  0.24830454  0.35797563  0.12372127    -0.41810
O1801       O  0.32929424  0.32463497  0.14933405    -0.78450
O1802       O  0.31195267  0.36812258  0.11944783    -0.97130
O1803       O  0.36207501  0.39689831  0.13457102    -0.90440
O1804       O  0.38017460  0.34761696  0.16497870    -0.93280
C1805       C  0.24781327  0.36248551  0.22766821     1.00470
C1806       C  0.35880411  0.34958102  0.28097791     1.13400
C1807       C  0.27942738  0.43997696  0.20226994     1.04180
O1808       O  0.28574690  0.42393375  0.09804048    -0.95430
O1809       O  0.34019087  0.42552479  0.09022007    -0.91180
O1810       O  0.36280601  0.38851959  0.07028365    -0.84320
C1811       C  0.35552269  0.41382362  0.06873070     1.10820
O1812       O  0.39805308  0.42283780  0.23255210    -0.97410
Zr1813     Zr  0.38571991  0.39353104  0.18514931     1.88940
O1814       O  0.40539021  0.35634388  0.10328304    -0.74060
O1815       O  0.32907294  0.46196175  0.14824417    -0.53320
O1816       O  0.40088948  0.43822976  0.16555834    -0.98000
O1817       O  0.42100099  0.37437337  0.21962413    -0.55220
O1818       O  0.42123930  0.38371540  0.14518274    -0.74570
C1819       C  0.42433045  0.36981326  0.11800773     0.97770
O1820       O  0.34452585  0.33361221  0.05807358    -0.63390
O1821       O  0.32520564  0.28421262  0.22576493    -0.58200
O1822       O  0.36720270  0.30351637  0.10879248    -0.94880
O1823       O  0.36479483  0.28564363  0.16142058    -0.93310
O1824       O  0.27093561  0.29643336  0.17833599    -0.93660
O1825       O  0.27189866  0.31012616  0.11298163    -0.92450
C1826       C  0.36820283  0.28361081  0.12958415     1.17250
H1827       H  0.29750043  0.32704946  0.22664253     0.32560
H1828       H  0.30331203  0.36882216  0.09786954     0.43410
H1829       H  0.39706068  0.33832985  0.16246773     0.36930
H1830       H  0.34333355  0.43060747  0.20339456     0.33410
H1831       H  0.23243410  0.34699279  0.13062050     0.25200
H1832       H  0.31586208  0.47147296  0.13418611     0.31140
H1833       H  0.38430259  0.44768219  0.15897674     0.37050
H1834       H  0.25144121  0.29803463  0.18256615     0.31510
H1835       H  0.33192113  0.26729954  0.21489099     0.30390
H1836       H  0.38380878  0.27958018  0.23153204     0.32070
H1837       H  0.42808128  0.35876446  0.20641196     0.31030
H1838       H  0.28323814  0.31577151  0.09376111     0.35030
H1839       H  0.33226410  0.31806136  0.06303384     0.27770
H1840       H  0.30332523  0.39706674  0.29870503     0.32000
H1841       H  0.41692669  0.42840924  0.22843073     0.34850
H1842       H  0.33134830  0.28305892  0.24925567     0.27460
H1843       H  0.33269523  0.34757685  0.04835853     0.40330
H1844       H  0.26851580  0.41612885  0.10609126     0.30390
H1845       H  0.24470442  0.37660735  0.13254064     0.38000
H1846       H  0.41146809  0.36572718  0.23867652     0.29850
H1847       H  0.32407905  0.46699361  0.17150531     0.29920
H1848       H  0.32734571  0.41629074  0.28764110     0.30180
Zr1849     Zr  0.12902664  0.56777223  0.96101714     2.17510
O1850       O  0.15715307  0.59139870  0.92004166    -0.52170
O1851       O  0.12425862  0.52086018  0.94226542    -0.75380
O1852       O  0.17203821  0.54720557  0.95483352    -0.82160
O1853       O  0.07663457  0.61134711  0.92938183    -0.83910
O1854       O  0.18936638  0.55122774  0.00734309    -0.79530
O1855       O  0.09750024  0.57262924  0.91600999    -0.91170
O1856       O  0.10539002  0.49670143  0.98476856    -0.77130
O1857       O  0.13439489  0.54056184  0.00927654    -0.86620
O1858       O  0.08470119  0.55650519  0.97850063    -0.86310
O1859       O  0.15340435  0.59629268  0.99972579    -0.73070
O1860       O  0.10893195  0.61155023  0.97024664    -0.85200
Zr1861     Zr  0.09476639  0.60198259  0.07909097     2.26420
Zr1862     Zr  0.15783661  0.56864266  0.04820047     2.06270
Zr1863     Zr  0.06485928  0.60017778  0.98858897     2.10050
Zr1864     Zr  0.09043269  0.53018699  0.02770234     1.78760
O1865       O  0.03740214  0.63786593  0.96957404    -0.94010
O1866       O  0.10954619  0.49251161  0.05886123    -0.41810
O1867       O  0.07036627  0.57393707  0.03895872    -0.78450
O1868       O  0.11418297  0.55758256  0.06931089    -0.97130
O1869       O  0.13809058  0.61217157  0.05853599    -0.90440
O1870       O  0.08804555  0.62800522  0.02920351    -0.93280
C1871       C  0.11689071  0.49819564  0.95580458     1.00470
C1872       C  0.08874017  0.59601016  0.90770187     1.13400
C1873       C  0.19092151  0.54530646  0.97608827     1.04180
O1874       O  0.16468693  0.52588566  0.07769402    -0.95430
O1875       O  0.16814725  0.58768777  0.10225885    -0.91180
O1876       O  0.13059861  0.60826702  0.12230424    -0.84320
C1877       C  0.15568138  0.60175677  0.12435819     1.10820
O1878       O  0.16149994  0.65542285  0.96579451    -0.97410
Zr1879     Zr  0.13195191  0.63933977  0.01053510     1.88940
O1880       O  0.09547623  0.65014208  0.09482784    -0.74060
O1881       O  0.20411399  0.58158993  0.06099424    -0.53320
O1882       O  0.17365630  0.65875404  0.03223780    -0.98000
O1883       O  0.11068650  0.67502513  0.97799463    -0.55220
O1884       O  0.11793326  0.67234677  0.05317880    -0.74570
C1885       C  0.10509237  0.67184215  0.08116211     0.97770
O1886       O  0.07662579  0.58412321  0.13139425    -0.63390
O1887       O  0.02944427  0.57049017  0.96643254    -0.58200
O1888       O  0.04705698  0.61139346  0.08200807    -0.94880
O1889       O  0.03060622  0.61359450  0.02899535    -0.93310
O1890       O  0.04822660  0.51200882  0.00601990    -0.93660
O1891       O  0.06017885  0.51397923  0.07146333    -0.92450
C1892       C  0.02801174  0.61532548  0.06103846     1.16610
H1893       H  0.07517385  0.54592504  0.96170299     0.32560
H1894       H  0.11544615  0.54775041  0.09012777     0.43410
H1895       H  0.07750758  0.64413705  0.03344493     0.36930
H1896       H  0.17093925  0.60031876  0.99075799     0.33410
H1897       H  0.09915794  0.47612710  0.05155135     0.25200
H1898       H  0.21450578  0.56442610  0.06042163     0.31140
H1899       H  0.17026054  0.67861609  0.03478569     0.37050
H1900       H  0.05093159  0.49197722  0.00430439     0.31510
H1901       H  0.01265858  0.57817314  0.97570207     0.30390
H1902       H  0.02498687  0.62946516  0.95303986     0.32070
H1903       H  0.11548544  0.69239224  0.98962601     0.31030
H1904       H  0.06514496  0.52495674  0.09151810     0.35030
H1905       H  0.06217816  0.57123029  0.12446145     0.27770
H1906       H  0.17514202  0.59353208  0.92999382     0.32000
H1907       H  0.16369569  0.67540686  0.96954538     0.34850
H1908       H  0.02886775  0.57474001  0.94223882     0.27460
H1909       H  0.09083454  0.57218598  0.14016287     0.40330
H1910       H  0.18216558  0.51923343  0.06927215     0.30390
H1911       H  0.12754159  0.48991671  0.04883610     0.38000
H1912       H  0.09124179  0.67259312  0.98226062     0.29850
H1913       H  0.21058451  0.59223841  0.04151968     0.29920
H1914       H  0.15018780  0.61031293  0.91995588     0.30180
Zr1915     Zr  0.35684184  0.56680761  0.96828301     2.17510
O1916       O  0.32374161  0.58597289  0.00686165    -0.52170
O1917       O  0.36711671  0.52182955  0.98911151    -0.75380
O1918       O  0.31485741  0.54248543  0.96744113    -0.82160
O1919       O  0.40550008  0.61641757  0.00319834    -0.83910
O1920       O  0.30715537  0.53124187  0.91300033    -0.79530
O1921       O  0.38253768  0.57833152  0.01775187    -0.91170
O1922       O  0.39053877  0.49994638  0.94795758    -0.77130
O1923       O  0.35549814  0.53911956  0.91939108    -0.86620
O1924       O  0.40239658  0.56021244  0.95316139    -0.86310
O1925       O  0.33202579  0.59269691  0.92841918    -0.73070
O1926       O  0.37411942  0.61227411  0.96055666    -0.85200
Zr1927     Zr  0.39255699  0.60445264  0.85250626     2.26420
Zr1928     Zr  0.33135245  0.56434117  0.87918738     2.06270
Zr1929     Zr  0.41942645  0.60554092  0.94457297     2.10050
Zr1930     Zr  0.40047436  0.53323813  0.90320164     1.78760
O1931       O  0.44183863  0.64840165  0.95989660    -0.94010
O1932       O  0.38256218  0.49298579  0.87412909    -0.41810
O1933       O  0.41692754  0.57884378  0.89371494    -0.78450
O1934       O  0.37645654  0.55813322  0.86047586    -0.97130
O1935       O  0.34823930  0.60971988  0.87143234    -0.90440
O1936       O  0.39605553  0.63119239  0.90315023    -0.93280
C1937       C  0.37901920  0.50074974  0.97695850     1.00470
C1938       C  0.39240157  0.60199138  0.02495950     1.13400
C1939       C  0.30009623  0.53321340  0.94371795     1.04180
O1940       O  0.32796715  0.52668052  0.83890573    -0.95430
O1941       O  0.31965774  0.58450348  0.82662402    -0.91180
O1942       O  0.35588029  0.60986938  0.81022098    -0.84320
C1943       C  0.33130524  0.60123308  0.80667253     1.10820
O1944       O  0.31940884  0.65128579  0.96375155    -0.97410
Zr1945     Zr  0.35079183  0.63787841  0.91964667     1.88940
O1946       O  0.39180719  0.65280988  0.83895118    -0.74060
O1947       O  0.28372096  0.57479537  0.87506663    -0.53320
O1948       O  0.30817920  0.65368250  0.89801424    -0.98000
O1949       O  0.36900415  0.67534899  0.95373136    -0.55220
O1950       O  0.36376612  0.67185634  0.87753381    -0.74570
C1951       C  0.37899876  0.67318183  0.85141837     0.97770
O1952       O  0.41089698  0.58902423  0.79898217    -0.63390
O1953       O  0.45552525  0.58178352  0.97269356    -0.58200
O1954       O  0.44080003  0.61267023  0.85155659    -0.94880
O1955       O  0.45607441  0.61434365  0.90553616    -0.93310
O1956       O  0.44491402  0.52131019  0.92292610    -0.93660
O1957       O  0.43067250  0.51778635  0.85902168    -0.92450
C1958       C  0.45946690  0.61490058  0.87359480     1.16610
H1959       H  0.41205969  0.55100685  0.97060085     0.32560
H1960       H  0.37689244  0.54818629  0.83944812     0.43410
H1961       H  0.40570370  0.64823841  0.89996263     0.36930
H1962       H  0.31395834  0.59498499  0.93648240     0.33410
H1963       H  0.39340348  0.47757985  0.88232343     0.25200
H1964       H  0.27374191  0.55751583  0.87926784     0.31140
H1965       H  0.31037747  0.67380702  0.89621246     0.37050
H1966       H  0.44394740  0.50130635  0.92675225     0.31510
H1967       H  0.47208897  0.59160329  0.96575519     0.30390
H1968       H  0.45382891  0.64354141  0.97856742     0.32070
H1969       H  0.36534435  0.69214523  0.94088807     0.31030
H1970       H  0.43015756  0.53246131  0.84209076     0.35030
H1971       H  0.42459895  0.57541215  0.80494188     0.27770
H1972       H  0.30597428  0.58498569  0.99610814     0.32000
H1973       H  0.31660964  0.67118957  0.96097518     0.34850
H1974       H  0.45330390  0.58659214  0.99669254     0.27460
H1975       H  0.39633745  0.57796641  0.78860092     0.40330
H1976       H  0.32309623  0.51046336  0.85245044     0.30390
H1977       H  0.36461718  0.48992816  0.88422031     0.38000
H1978       H  0.38869600  0.67328442  0.95239388     0.29850
H1979       H  0.27965943  0.58676400  0.89452475     0.29920
H1980       H  0.32799012  0.60584626  0.00687646     0.30180
Zr1981     Zr  0.17645129  0.59967115  0.71992268     2.17510
O1982       O  0.18009522  0.57113175  0.76943727    -0.52170
O1983       O  0.22174641  0.61267384  0.73661856    -0.75380
O1984       O  0.19532086  0.55494466  0.70871494    -0.82160
O1985       O  0.12633636  0.65087907  0.76292116    -0.83910
O1986       O  0.20811525  0.55355505  0.65451689    -0.79530
O1987       O  0.15155744  0.61306755  0.77006008    -0.91170
O1988       O  0.23982925  0.63768641  0.69426560    -0.77130
O1989       O  0.19991371  0.60309891  0.66833377    -0.86620
O1990       O  0.18005235  0.64758644  0.70938037    -0.86310
O1991       O  0.14972445  0.57342444  0.68080787    -0.73070
O1992       O  0.13149362  0.61546676  0.71634511    -0.85200
Zr1993     Zr  0.12999711  0.63914143  0.61170631     2.26420
Zr1994     Zr  0.17310979  0.57871111  0.62841858     2.06270
Zr1995     Zr  0.13465381  0.66311545  0.70407756     2.10050
Zr1996     Zr  0.20280914  0.65028565  0.65684508     1.78760
O1997       O  0.09331891  0.68265921  0.72583371    -0.94010
O1998       O  0.23969868  0.63797644  0.61965433    -0.41810
O1999       O  0.15723276  0.66494912  0.65115953    -0.78450
O2000       O  0.17651859  0.62618836  0.61476664    -0.97130
O2001       O  0.12758233  0.59222927  0.62562136    -0.90440
O2002       O  0.10772499  0.63801395  0.66483098    -0.93280
C2003       C  0.24164469  0.62447829  0.72196031     1.00470
C2004       C  0.13499231  0.63114866  0.78099978     1.13400
C2005       C  0.20771641  0.54381836  0.68397747     1.04180
O2006       O  0.20687655  0.56207270  0.58927454    -0.95430
O2007       O  0.16415921  0.58548026  0.56964535    -0.91180
O2008       O  0.12334993  0.60311933  0.56843887    -0.84320
C2009       C  0.14056867  0.58578725  0.55747071     1.10820
O2010       O  0.09590843  0.55657032  0.72075705    -0.97410
Zr2011     Zr  0.10468474  0.59050235  0.67747084     1.88940
O2012       O  0.08181715  0.63495285  0.60388308    -0.74060
O2013       O  0.15170039  0.53379523  0.62240196    -0.53320
O2014       O  0.08931961  0.54769731  0.65177459    -0.98000
O2015       O  0.06883610  0.60426827  0.71563710    -0.55220
O2016       O  0.06840126  0.60223310  0.64016576    -0.74570
C2017       C  0.06369566  0.61930215  0.61678374     0.97770
O2018       O  0.14065940  0.66095149  0.55855204    -0.63390
O2019       O  0.15999285  0.70082619  0.72949604    -0.58200
O2020       O  0.11617316  0.68609352  0.61436215    -0.94880
O2021       O  0.11904839  0.70050276  0.66865823    -0.93310
O2022       O  0.21365692  0.69441397  0.68266473    -0.93660
O2023       O  0.21403552  0.68578066  0.61652816    -0.92450
C2024       C  0.11401254  0.70439887  0.63740047     1.16610
H2025       H  0.18961834  0.65706058  0.72708849     0.32560
H2026       H  0.18509099  0.62861107  0.59322353     0.43410
H2027       H  0.09036617  0.64653576  0.66442242     0.36930
H2028       H  0.14876149  0.55439865  0.68719063     0.33410
H2029       H  0.25560499  0.64748569  0.62917133     0.25200
H2030       H  0.15980979  0.52569839  0.60198144     0.31140
H2031       H  0.10342276  0.53430190  0.65695699     0.37050
H2032       H  0.23322567  0.69390449  0.68658593     0.31510
H2033       H  0.15331994  0.71748038  0.71845374     0.30390
H2034       H  0.09903142  0.69981947  0.73729643     0.32070
H2035       H  0.05996972  0.61974063  0.70448234     0.31030
H2036       H  0.19857380  0.68591028  0.60107547     0.35030
H2037       H  0.15321069  0.67606816  0.56451217     0.27770
H2038       H  0.19912920  0.56573583  0.77083397     0.32000
H2039       H  0.07715183  0.55036040  0.71725682     0.34850
H2040       H  0.15302513  0.70211304  0.75271951     0.27460
H2041       H  0.15192231  0.64757248  0.54632406     0.40330
H2042       H  0.22056437  0.57691087  0.58855078     0.30390
H2043       H  0.24277082  0.61832594  0.62403102     0.38000
H2044       H  0.07813014  0.61279664  0.73503245     0.29850
H2045       H  0.15883049  0.52277315  0.64097110     0.29920
H2046       H  0.17004743  0.55399069  0.76431837     0.30180
Zr2047     Zr  0.17456316  0.37501460  0.70374801     2.17510
O2048       O  0.17704298  0.39240427  0.64666310    -0.52170
O2049       O  0.22094079  0.36380107  0.68985048    -0.75380
O2050       O  0.19280669  0.42123574  0.70278258    -0.82160
O2051       O  0.12114445  0.32051805  0.67545818    -0.83910
O2052       O  0.19973489  0.43552160  0.75607708    -0.79530
O2053       O  0.14874285  0.35480975  0.65760754    -0.91170
O2054       O  0.24008587  0.34378401  0.73479268    -0.77130
O2055       O  0.19969863  0.37795316  0.75390526    -0.86620
O2056       O  0.17887681  0.32910905  0.72247472    -0.86310
O2057       O  0.14890816  0.40461675  0.74018120    -0.73070
O2058       O  0.12976076  0.35957825  0.71390395    -0.85200
Zr2059     Zr  0.13162101  0.34675634  0.82200790     2.26420
Zr2060     Zr  0.17409091  0.40567563  0.79120504     2.06270
Zr2061     Zr  0.13365773  0.31404372  0.73359812     2.10050
Zr2062     Zr  0.20319606  0.33274721  0.77370806     1.78760
O2063       O  0.09055848  0.29194344  0.72236050    -0.94010
O2064       O  0.24053522  0.34836562  0.80831865    -0.41810
O2065       O  0.15793691  0.31838962  0.78470212    -0.78450
O2066       O  0.17785485  0.36051498  0.81304223    -0.97130
O2067       O  0.12886612  0.39168957  0.80051476    -0.90440
O2068       O  0.10769070  0.34199478  0.77048971    -0.93280
C2069       C  0.24139069  0.35490308  0.70570995     1.00470
C2070       C  0.13006808  0.33673999  0.65281159     1.13400
C2071       C  0.20238292  0.43820069  0.72449868     1.04180
O2072       O  0.21624756  0.41794713  0.81824465    -0.95430
O2073       O  0.16767039  0.40897873  0.85081800    -0.91180
O2074       O  0.12910430  0.38674755  0.86123635    -0.84320
C2075       C  0.14587386  0.40656725  0.86724956     1.10820
O2076       O  0.09473293  0.41820384  0.70392519    -0.97410
Zr2077     Zr  0.10406322  0.38765343  0.75042559     1.88940
O2078       O  0.08312767  0.35033220  0.83056957    -0.74060
O2079       O  0.15624202  0.45161914  0.79875828    -0.53320
O2080       O  0.08887628  0.43158909  0.77237313    -0.98000
O2081       O  0.06894442  0.36932057  0.71428835    -0.55220
O2082       O  0.06777713  0.37792730  0.78968555    -0.74570
C2083       C  0.06415131  0.36319232  0.81582955     0.97770
O2084       O  0.14244172  0.33086661  0.87803128    -0.63390
O2085       O  0.15620275  0.27505615  0.70784428    -0.58200
O2086       O  0.12211973  0.29776577  0.82731035    -0.94880
O2087       O  0.12404610  0.27914025  0.77478724    -0.93310
O2088       O  0.21373253  0.28727876  0.75207633    -0.93660
O2089       O  0.21439641  0.30035557  0.81735112    -0.92450
C2090       C  0.12149638  0.27728170  0.80670433     1.16610
H2091       H  0.18790007  0.31792409  0.70592728     0.32560
H2092       H  0.18709419  0.36102478  0.83425641     0.43410
H2093       H  0.09052076  0.33290967  0.77295030     0.36930
H2094       H  0.14763678  0.42276979  0.73094415     0.33410
H2095       H  0.25568264  0.33653983  0.80162916     0.25200
H2096       H  0.13869651  0.44885121  0.80999365     0.31140
H2097       H  0.10223837  0.44512517  0.76416010     0.37050
H2098       H  0.23331324  0.28783103  0.74792182     0.31510
H2099       H  0.14274760  0.25999915  0.70835163     0.30390
H2100       H  0.09482560  0.27588417  0.70805140     0.32070
H2101       H  0.05400606  0.38240230  0.71612425     0.31030
H2102       H  0.19779508  0.29859648  0.83090148     0.35030
H2103       H  0.15500587  0.31556518  0.87429895     0.27770
H2104       H  0.19599492  0.39796995  0.64315938     0.32000
H2105       H  0.07692143  0.42612992  0.70869815     0.34850
H2106       H  0.15785733  0.27971123  0.68382645     0.27460
H2107       H  0.15377115  0.34557820  0.88797451     0.40330
H2108       H  0.22013763  0.40244429  0.83320309     0.30390
H2109       H  0.24540024  0.36662620  0.79938464     0.38000
H2110       H  0.06233335  0.35259203  0.72564700     0.29850
H2111       H  0.15170980  0.45785035  0.77596953     0.29920
H2112       H  0.16698384  0.40978316  0.64708705     0.30180
C2113       C  0.21979578  0.51704166  0.68980230    -0.06970
C2114       C  0.22682687  0.51090937  0.72279232    -0.18090
C2115       C  0.22559640  0.48408596  0.73409083     0.10230
C2116       C  0.21570705  0.46336675  0.71218610    -0.06890
C2117       C  0.21475234  0.46875907  0.67772476    -0.18130
C2118       C  0.21732592  0.49550523  0.66606103     0.10260
S2119       S  0.23535883  0.47837355  0.77688243    -0.33090
S2120       S  0.21425990  0.50153098  0.62163463    -0.33100
H2121       H  0.21506041  0.47396126  0.61110487     0.28270
H2122       H  0.24650678  0.45254825  0.76999157     0.28270
H2123       H  0.23094913  0.52731854  0.74060017     0.18860
H2124       H  0.20957772  0.45251590  0.66019799     0.18870
C2125       C  0.26842758  0.62154367  0.73793974    -0.06970
C2126       C  0.27683028  0.64090135  0.76197548    -0.18090
C2127       C  0.29891384  0.63613810  0.78297226     0.10230
C2128       C  0.31381491  0.61157060  0.77940031    -0.06890
C2129       C  0.30598750  0.59283523  0.75421913    -0.18130
C2130       C  0.28368183  0.59748350  0.73365277     0.10260
S2131       S  0.30460958  0.66126925  0.81576125    -0.33090
S2132       S  0.27439595  0.57072751  0.70431460    -0.33100
H2133       H  0.26129161  0.58761716  0.68142969     0.28270
H2134       H  0.32543288  0.64839443  0.83253652     0.28270
H2135       H  0.26497720  0.65912666  0.76597224     0.18860
H2136       H  0.31636270  0.57351062  0.75192211     0.18870
C2137       C  0.09767644  0.60625357  0.87403520    -0.06970
C2138       C  0.12179097  0.59529800  0.86193250    -0.18090
C2139       C  0.13640946  0.60766067  0.83656891     0.10230
C2140       C  0.12399223  0.62668458  0.81552504    -0.06890
C2141       C  0.09876528  0.63692611  0.82568797    -0.18130
C2142       C  0.08606987  0.62775436  0.85555435     0.10260
S2143       S  0.17176282  0.60023497  0.83521943    -0.33090
S2144       S  0.05446685  0.64262751  0.86711792    -0.33100
H2145       H  0.04355075  0.61845344  0.88074790     0.28270
H2146       H  0.17945787  0.62595155  0.82242122     0.28270
H2147       H  0.13082156  0.57803156  0.87402376     0.18860
H2148       H  0.08866699  0.65161291  0.81012797     0.18870
C2149       C  0.12426404  0.47272343  0.93663361    -0.06970
C2150       C  0.14760763  0.47434333  0.91703229    -0.18090
C2151       C  0.15569966  0.45314606  0.89559302     0.10230
C2152       C  0.13984237  0.42862351  0.89293676    -0.06890
C2153       C  0.11683311  0.42651767  0.91358210    -0.18130
C2154       C  0.10920439  0.44795082  0.93563361     0.10260
S2155       S  0.18590510  0.45953692  0.87117473    -0.33090
S2156       S  0.07939498  0.44303746  0.96040622    -0.33100
H2157       H  0.09300425  0.44687926  0.99091488     0.28270
H2158       H  0.19502562  0.48333790  0.88790963     0.28270
H2159       H  0.15965202  0.49291448  0.91814569     0.18860
H2160       H  0.10444515  0.40816516  0.91232903     0.18870
C2161       C  0.21760971  0.54064927  0.96352514    -0.06970
C2162       C  0.22715055  0.51408113  0.95748431    -0.18090
C2163       C  0.25447060  0.51005813  0.95074979     0.10230
C2164       C  0.27169273  0.53312252  0.95069039    -0.06890
C2165       C  0.26156260  0.55937276  0.95547320    -0.18130
C2166       C  0.23482017  0.56349818  0.96158049     0.10260
S2167       S  0.26605094  0.47563167  0.94370318    -0.33090
S2168       S  0.22321886  0.59820671  0.96771019    -0.33100
H2169       H  0.24760547  0.61194723  0.96117748     0.28270
H2170       H  0.29336702  0.48093550  0.94964789     0.28270
H2171       H  0.21359611  0.49662787  0.95910927     0.18860
H2172       H  0.27477736  0.57698319  0.95430124     0.18870
C2173       C  0.36663610  0.43239133  0.04270693    -0.06970
C2174       C  0.37899889  0.45664851  0.05436519    -0.18090
C2175       C  0.38535570  0.47820993  0.03284676     0.10230
C2176       C  0.37905605  0.47600421  0.99844423    -0.06890
C2177       C  0.36876645  0.45089205  0.98609637    -0.18130
C2178       C  0.36223295  0.42917291  0.00791297     0.10260
S2179       S  0.40073663  0.50844851  0.05115609    -0.33090
S2180       S  0.34650733  0.39897986  0.99023318    -0.33100
H2181       H  0.32911820  0.39401565  0.01736276     0.28270
H2182       H  0.41497362  0.51617229  0.02217240     0.28270
H2183       H  0.38287295  0.45924706  0.08093136     0.18860
H2184       H  0.36387741  0.44891748  0.95975821     0.18870
C2185       C  0.35922725  0.63740808  0.11619472    -0.06970
C2186       C  0.38603019  0.64419470  0.10736323    -0.18090
C2187       C  0.39802704  0.63364502  0.07763752     0.10230
C2188       C  0.38387615  0.61392985  0.05805893    -0.06890
C2189       C  0.35796040  0.60660476  0.06852474    -0.18130
C2190       C  0.34458595  0.62056918  0.09370557     0.10260
S2191       S  0.43183952  0.64419168  0.06784590    -0.33090
S2192       S  0.30848723  0.61677017  0.09384094    -0.33100
H2193       H  0.30391691  0.64396143  0.10429745     0.28270
H2194       H  0.43923945  0.61922042  0.05278714     0.28270
H2195       H  0.39787730  0.65714304  0.12392460     0.18860
H2196       H  0.34709008  0.59049009  0.05601205     0.18870
C2197       C  0.21981821  0.61936202  0.19240458    -0.06970
C2198       C  0.21248820  0.63882032  0.16855084    -0.18090
C2199       C  0.18935065  0.63528637  0.14880330     0.10230
C2200       C  0.17290998  0.61158726  0.15249630    -0.06890
C2201       C  0.17967738  0.59274476  0.17739052    -0.18130
C2202       C  0.20260810  0.59645659  0.19746933     0.10260
S2203       S  0.18352235  0.66042742  0.11689095    -0.33090
S2204       S  0.20997950  0.56979146  0.22689135    -0.33100
H2205       H  0.22509391  0.58601927  0.24919432     0.28270
H2206       H  0.15612357  0.65467345  0.11276399     0.28270
H2207       H  0.22554919  0.65634083  0.16419178     0.18860
H2208       H  0.16797894  0.57400112  0.17972406     0.18870
C2209       C  0.26380372  0.46465234  0.21000819    -0.06970
C2210       C  0.25947214  0.48313214  0.18377904    -0.18090
C2211       C  0.25875837  0.51124713  0.19035052     0.10230
C2212       C  0.26280130  0.52039560  0.22352650    -0.06890
C2213       C  0.25942797  0.50164685  0.24981381    -0.18130
C2214       C  0.25963590  0.47361465  0.24324696     0.10260
S2215       S  0.25507185  0.53500278  0.15625447    -0.33090
S2216       S  0.25695861  0.45064969  0.27825343    -0.33100
H2217       H  0.24827774  0.42794776  0.25903552     0.28270
H2218       H  0.24985454  0.51526168  0.13114178     0.28270
H2219       H  0.26013558  0.47610683  0.15798912     0.18860
H2220       H  0.25993173  0.50849819  0.27570621     0.18870
C2221       C  0.37546939  0.35459608  0.31093563    -0.06970
C2222       C  0.38629404  0.38113615  0.31424876    -0.18090
C2223       C  0.40016337  0.38939354  0.34284554     0.10230
C2224       C  0.40261663  0.37109354  0.36981914    -0.06890
C2225       C  0.39438814  0.34358851  0.36516037    -0.18130
C2226       C  0.38085822  0.33510438  0.33587562     0.10260
S2227       S  0.41297872  0.42414063  0.34409508    -0.33090
S2228       S  0.36938774  0.29999801  0.33315700    -0.33100
H2229       H  0.34685426  0.30482364  0.31318998     0.28270
H2230       H  0.43317316  0.41902498  0.36763909     0.28270
H2231       H  0.38342141  0.39589559  0.29447913     0.18860
H2232       H  0.39621993  0.32926380  0.38558111     0.18870
C2233       C  0.36506467  0.55144085  0.38993721    -0.06970
C2234       C  0.35877861  0.55432780  0.42418060    -0.18090
C2235       C  0.36336572  0.53280729  0.44689671     0.10230
C2236       C  0.37518057  0.50811654  0.43539964    -0.06890
C2237       C  0.38286614  0.50618861  0.40163369    -0.18130
C2238       C  0.37795992  0.52719578  0.37903388     0.10260
S2239       S  0.35135822  0.53706517  0.48921833    -0.33090
S2240       S  0.38729966  0.52072525  0.33595207    -0.33100
H2241       H  0.38931838  0.54827302  0.32656900     0.28270
H2242       H  0.34120288  0.51018084  0.49212384     0.28270
H2243       H  0.34841358  0.57248434  0.43278328     0.18860
H2244       H  0.39202814  0.48753334  0.39236335     0.18870
C2245       C  0.31388430  0.37028517  0.64848500    -0.06970
C2246       C  0.29951562  0.39179854  0.66320939    -0.18090
C2247       C  0.27752342  0.38692782  0.68427956     0.10230
C2248       C  0.26820011  0.35989322  0.68988663    -0.06890
C2249       C  0.28365882  0.33813287  0.67736779    -0.18130
C2250       C  0.30671385  0.34308997  0.65743075     0.10260
S2251       S  0.26208337  0.41639104  0.70299059    -0.33090
S2252       S  0.32497006  0.31393342  0.64240972    -0.33100
H2253       H  0.35033306  0.32593410  0.64782775     0.28270
H2254       H  0.25290785  0.40302067  0.73199467     0.28270
H2255       H  0.30495331  0.41278448  0.65727712     0.18860
H2256       H  0.27726826  0.31722995  0.68211644     0.18870
C2257       C  0.10116340  0.35573416  0.55674735    -0.06970
C2258       C  0.08237119  0.35182661  0.58245311    -0.18090
C2259       C  0.09047145  0.34164230  0.61359746     0.10230
C2260       C  0.11795225  0.33617050  0.61916992    -0.06890
C2261       C  0.13578551  0.33712741  0.59217594    -0.18130
C2262       C  0.12771170  0.34673701  0.56113722     0.10260
S2263       S  0.06545937  0.33864831  0.64591004    -0.33090
S2264       S  0.15231664  0.34977904  0.52814801    -0.33100
H2265       H  0.17268031  0.33484460  0.54366756     0.28270
H2266       H  0.07410903  0.31281849  0.65640970     0.28270
H2267       H  0.06184761  0.35821077  0.57899367     0.18860
H2268       H  0.15670746  0.33255756  0.59629466     0.18870
C2269       C  0.11968848  0.51399489  0.49700478    -0.06970
C2270       C  0.10252002  0.53673172  0.49686175    -0.18090
C2271       C  0.10888533  0.56113104  0.51478180     0.10230
C2272       C  0.13319735  0.56319842  0.53309660    -0.06890
C2273       C  0.15075549  0.54090303  0.53128789    -0.18130
C2274       C  0.14425741  0.51655555  0.51443356     0.10260
S2275       S  0.08535252  0.58874054  0.51285865    -0.33090
S2276       S  0.16842456  0.48928296  0.51522279    -0.33100
H2277       H  0.18486141  0.49986440  0.54091218     0.28270
H2278       H  0.10524129  0.60927031  0.50987449     0.28270
H2279       H  0.08380232  0.53531639  0.48327611     0.18860
H2280       H  0.16973602  0.54203462  0.54415662     0.18870
C2281       C  0.21711312  0.44454927  0.45735566    -0.06970
C2282       C  0.22744675  0.41816652  0.45955224    -0.18090
C2283       C  0.25449301  0.41378985  0.45766106     0.10230
C2284       C  0.27202230  0.43640248  0.45783148    -0.06890
C2285       C  0.26216205  0.46310563  0.45584132    -0.18130
C2286       C  0.23450987  0.46743492  0.45418400     0.10260
S2287       S  0.26546158  0.37872074  0.45671476    -0.33090
S2288       S  0.22329282  0.50229396  0.45022217    -0.33100
H2289       H  0.19559459  0.49740416  0.45140116     0.28270
H2290       H  0.28685181  0.38388048  0.43457771     0.28270
H2291       H  0.21433396  0.40043450  0.46124327     0.18860
H2292       H  0.27590450  0.48045897  0.45668770     0.18870
C2293       C  0.22138461  0.36525561  0.24478603    -0.06970
C2294       C  0.21617107  0.34878217  0.27264915    -0.18090
C2295       C  0.19360076  0.35286595  0.29308162     0.10230
C2296       C  0.17575780  0.37449567  0.28647305    -0.06890
C2297       C  0.18021835  0.39023854  0.25765937    -0.18130
C2298       C  0.20261534  0.38579489  0.23664823     0.10260
S2299       S  0.18992529  0.33071032  0.32858417    -0.33090
S2300       S  0.20662949  0.40838562  0.20135803    -0.33100
H2301       H  0.23424580  0.40539583  0.19656689     0.28270
H2302       H  0.16232919  0.33443467  0.33325543     0.28270
H2303       H  0.23028117  0.33297869  0.27913389     0.18860
H2304       H  0.16708473  0.40722287  0.25259731     0.18870
C2305       C  0.37529733  0.20272707  0.08800326    -0.06970
C2306       C  0.35133693  0.21733261  0.08528261    -0.18090
C2307       C  0.34871979  0.24344523  0.09909968     0.10230
C2308       C  0.37067642  0.25589658  0.11552241    -0.06890
C2309       C  0.39469686  0.24152190  0.11863387    -0.18130
C2310       C  0.39721054  0.21498865  0.10514681     0.10260
S2311       S  0.31664720  0.25975218  0.09520588    -0.33090
S2312       S  0.42924297  0.19868973  0.10840577    -0.33100
H2313       H  0.41922226  0.17782433  0.12926039     0.28270
H2314       H  0.31676802  0.27167621  0.12740155     0.28270
H2315       H  0.33422289  0.20814976  0.07264201     0.18860
H2316       H  0.41158628  0.25109193  0.13130079     0.18870
C2317       C  0.27324255  0.04681785  0.96461575    -0.06970
C2318       C  0.26087910  0.02105118  0.96248944    -0.18090
C2319       C  0.23306810  0.01900890  0.96111136     0.10230
C2320       C  0.21806310  0.04313222  0.96449308    -0.06890
C2321       C  0.23062459  0.06876309  0.96705083    -0.18130
C2322       C  0.25823248  0.07094510  0.96585855     0.10260
S2323       S  0.21708097  0.98592764  0.95540362    -0.33090
S2324       S  0.27411658  0.10447333  0.96687053    -0.33100
H2325       H  0.25051334  0.11996190  0.96687508     0.28270
H2326       H  0.24072359  0.97058807  0.95293616     0.28270
H2327       H  0.27302929  0.00279264  0.96219734     0.18860
H2328       H  0.21867985  0.08716598  0.96818222     0.18870
C2329       C  0.11275435  0.19644648  0.84740718    -0.06970
C2330       C  0.12897242  0.20069348  0.81928581    -0.18090
C2331       C  0.13274436  0.22687366  0.80624665     0.10230
C2332       C  0.11875019  0.24934925  0.82046088    -0.06890
C2333       C  0.10216073  0.24490911  0.84846466    -0.18130
C2334       C  0.09912732  0.21873144  0.86217534     0.10260
S2335       S  0.15781194  0.23034484  0.77378420    -0.33090
S2336       S  0.07792210  0.21515857  0.89868137    -0.33100
H2337       H  0.07175914  0.18720404  0.89416931     0.28270
H2338       H  0.16883014  0.25490723  0.78670491     0.28270
H2339       H  0.14019733  0.18374579  0.80874893     0.18860
H2340       H  0.09148800  0.26190535  0.85972684     0.18870
C2341       C  0.10580635  0.75092722  0.12853051    -0.06970
C2342       C  0.09185735  0.74675088  0.09828766    -0.18090
C2343       C  0.08977088  0.72078412  0.08334567     0.10230
C2344       C  0.10163801  0.69816275  0.09889687    -0.06890
C2345       C  0.11354504  0.70167381  0.13034024    -0.18130
C2346       C  0.11634613  0.72774882  0.14492697     0.10260
S2347       S  0.07222284  0.71785667  0.04406860    -0.33090
S2348       S  0.13667061  0.73013262  0.18192876    -0.33100
H2349       H  0.15452492  0.74920496  0.16742038     0.28270
H2350       H  0.06287270  0.69092972  0.04923778     0.28270
H2351       H  0.08328796  0.76403941  0.08547527     0.18860
H2352       H  0.12272850  0.68432445  0.14233523     0.18870
C2353       C  0.13440132  0.91733743  0.03034410    -0.06970
C2354       C  0.15061183  0.94106868  0.03143380    -0.18090
C2355       C  0.14359426  0.96533353  0.01571219     0.10230
C2356       C  0.11930199  0.96710646  0.99749074    -0.06890
C2357       C  0.10328985  0.94313784  0.99499600    -0.18130
C2358       C  0.11053023  0.91844363  0.01103397     0.10260
S2359       S  0.16766608  0.99291753  0.01947404    -0.33090
S2360       S  0.08872601  0.88916669  0.00526126    -0.33100
H2361       H  0.10979748  0.87041102  0.00190729     0.28270
H2362       H  0.16575755  0.99952400  0.98547372     0.28270
H2363       H  0.16912971  0.94120505  0.04548422     0.18860
H2364       H  0.08490958  0.94365079  0.98069386     0.18870
C2365       C  0.10793731  0.22992649  0.31723756    -0.06970
C2366       C  0.11557735  0.25215208  0.29680381    -0.18090
C2367       C  0.11524672  0.27915237  0.30872719     0.10230
C2368       C  0.10771851  0.28441599  0.34219427    -0.06890
C2369       C  0.09894478  0.26255532  0.36226963    -0.18130
C2370       C  0.09832508  0.23556361  0.34997340     0.10260
S2371       S  0.12740348  0.30562657  0.28123404    -0.33090
S2372       S  0.08465780  0.20955129  0.37711141    -0.33100
H2373       H  0.07281119  0.19417674  0.35101166     0.28270
H2374       H  0.10380362  0.32099120  0.28360423     0.28270
H2375       H  0.12307943  0.24851155  0.27165098     0.18860
H2376       H  0.09253436  0.26657601  0.38782242     0.18870
C2377       C  0.11881518  0.14323161  0.11890754    -0.06970
C2378       C  0.09362943  0.12986839  0.12099216    -0.18090
C2379       C  0.08111865  0.11875469  0.09243012     0.10230
C2380       C  0.09376663  0.12161627  0.06109990    -0.06890
C2381       C  0.11755937  0.13740347  0.05885896    -0.18130
C2382       C  0.13028702  0.14797696  0.08732485     0.10260
S2383       S  0.05065347  0.09909002  0.09791961    -0.33090
S2384       S  0.16192405  0.16568487  0.08200546    -0.33100
H2385       H  0.16059099  0.18082818  0.11211261     0.28270
H2386       H  0.04175500  0.10131920  0.06470866     0.28270
H2387       H  0.08469375  0.12605637  0.14534248     0.18860
H2388       H  0.12757532  0.13986526  0.03497975     0.18870
C2389       C  0.31358889  0.10516768  0.14887271    -0.06970
C2390       C  0.30777255  0.13294597  0.15535920    -0.18090
C2391       C  0.28409415  0.14076635  0.17252611     0.10230
C2392       C  0.26569008  0.12043431  0.18367566    -0.06890
C2393       C  0.27241772  0.09281312  0.17897711    -0.18130
C2394       C  0.29600548  0.08503501  0.16237944     0.10260
S2395       S  0.27769832  0.17688867  0.17714541    -0.33090
S2396       S  0.30199551  0.04876480  0.15809864    -0.33100
H2397       H  0.33000678  0.05125087  0.15480821     0.28270
H2398       H  0.24958299  0.17481536  0.17755313     0.28270
H2399       H  0.32058216  0.14871555  0.14467957     0.18860
H2400       H  0.25890314  0.07696219  0.18808646     0.18870
C2401       C  0.22463627  0.96942653  0.18979200    -0.06970
C2402       C  0.23169671  0.97568475  0.22296764    -0.18090
C2403       C  0.23198649  0.00285825  0.23403950     0.10230
C2404       C  0.22379898  0.02331352  0.21152262    -0.06890
C2405       C  0.22496693  0.01766084  0.17707605    -0.18130
C2406       C  0.22605184  0.99058303  0.16573262     0.10260
S2407       S  0.24037960  0.01053198  0.27716375    -0.33090
S2408       S  0.22627163  0.98389464  0.12107457    -0.33100
H2409       H  0.23131407  0.01104463  0.11105155     0.28270
H2410       H  0.24885056  0.98408384  0.28558864     0.28270
H2411       H  0.23367838  0.95941965  0.24101906     0.18860
H2412       H  0.22168074  0.03384023  0.15923366     0.18870
C2413       C  0.37014090  0.78332358  0.34373727    -0.06970
C2414       C  0.39449706  0.76999373  0.33749046    -0.18090
C2415       C  0.39484342  0.74286957  0.32560024     0.10230
C2416       C  0.37029244  0.72915058  0.31946484    -0.06890
C2417       C  0.34608521  0.74271475  0.32496886    -0.18130
C2418       C  0.34570268  0.76963117  0.33676224     0.10260
S2419       S  0.42702586  0.72722090  0.31862363    -0.33090
S2420       S  0.31336709  0.78549949  0.34155832    -0.33100
H2421       H  0.32224149  0.81237495  0.33503530     0.28270
H2422       H  0.41840375  0.69976761  0.32006065     0.28270
H2423       H  0.41328230  0.78044844  0.34294405     0.18860
H2424       H  0.32724726  0.73229834  0.31957346     0.18870
C2425       C  0.26463735  0.86981556  0.24318907    -0.06970
C2426       C  0.27166362  0.89705003  0.25115814    -0.18090
C2427       C  0.29451974  0.90368872  0.26993852     0.10230
C2428       C  0.31112469  0.88271270  0.28224742    -0.06890
C2429       C  0.30528023  0.85548464  0.27238214    -0.18130
C2430       C  0.28223943  0.84882163  0.25321035     0.10260
S2431       S  0.30082148  0.93957875  0.27846051    -0.33090
S2432       S  0.27528038  0.81310349  0.24498095    -0.33100
H2433       H  0.24728310  0.81508124  0.24807262     0.28270
H2434       H  0.32868530  0.93707176  0.28245039     0.28270
H2435       H  0.25889744  0.91350104  0.24299697     0.18860
H2436       H  0.31745564  0.83907863  0.28187755     0.18870
C2437       C  0.09710325  0.88144777  0.37288334    -0.06970
C2438       C  0.11990082  0.89520355  0.36024752    -0.18090
C2439       C  0.13619247  0.88367419  0.33561207     0.10230
C2440       C  0.12687066  0.86090570  0.31657571    -0.06890
C2441       C  0.10271552  0.84807249  0.32710990    -0.18130
C2442       C  0.08828255  0.85753724  0.35552029     0.10260
S2443       S  0.16980524  0.89772919  0.33272713    -0.33090
S2444       S  0.05811727  0.83924167  0.36692506    -0.33100
H2445       H  0.04398735  0.86290842  0.37633466     0.28270
H2446       H  0.18179980  0.87211407  0.32698688     0.28270
H2447       H  0.12737511  0.91362022  0.37253159     0.18860
H2448       H  0.09467617  0.83089657  0.31284730     0.18870
C2449       C  0.13104919  0.00918104  0.43638588    -0.06970
C2450       C  0.11151558  0.02971883  0.43372015    -0.18090
C2451       C  0.11633388  0.05376135  0.41493020     0.10230
C2452       C  0.14131113  0.05760839  0.39837352    -0.06890
C2453       C  0.16136558  0.03813570  0.40389789    -0.18130
C2454       C  0.15651647  0.01424799  0.42196460     0.10260
S2455       S  0.08935180  0.07764897  0.41128651    -0.33090
S2456       S  0.18391528  0.99086190  0.42496664    -0.33100
H2457       H  0.17862262  0.98455864  0.45867878     0.28270
H2458       H  0.10570683  0.10068371  0.41809196     0.28270
H2459       H  0.09203479  0.02657710  0.44526809     0.18860
H2460       H  0.18091566  0.04075778  0.39228761     0.18870
C2461       C  0.22581218  0.92920591  0.45679700    -0.06970
C2462       C  0.23714987  0.95509376  0.46300256    -0.18090
C2463       C  0.26447844  0.95793456  0.46840625     0.10230
C2464       C  0.28025967  0.93437922  0.46795673    -0.06890
C2465       C  0.26910913  0.90873102  0.46032730    -0.18130
C2466       C  0.24208900  0.90606529  0.45387165     0.10260
S2467       S  0.27768249  0.99157896  0.47700597    -0.33090
S2468       S  0.22876504  0.87233667  0.44549702    -0.33100
H2469       H  0.21738371  0.88081252  0.41520955     0.28270
H2470       H  0.29425726  0.98307586  0.50320439     0.28270
H2471       H  0.22452840  0.97262834  0.46729705     0.18860
H2472       H  0.28150393  0.89062905  0.45941984     0.18870
C2473       C  0.10677524  0.78519861  0.59826073    -0.06970
C2474       C  0.09318708  0.76338080  0.58259183    -0.18090
C2475       C  0.09279967  0.73716635  0.59663508     0.10230
C2476       C  0.10741876  0.73242763  0.62635157    -0.06890
C2477       C  0.11938704  0.75480543  0.64314607    -0.18130
C2478       C  0.11888928  0.78112595  0.62965649     0.10260
S2479       S  0.07351181  0.71016324  0.57636104    -0.33090
S2480       S  0.13649777  0.80803012  0.65182406    -0.33100
H2481       H  0.11461331  0.82589915  0.65194659     0.28270
H2482       H  0.06251382  0.72621514  0.55089086     0.28270
H2483       H  0.08334268  0.76686376  0.55890885     0.18860
H2484       H  0.13050601  0.75158997  0.66600412     0.18870
C2485       C  0.38535672  0.75469553  0.81112186    -0.06970
C2486       C  0.38066050  0.73225139  0.78943317    -0.18090
C2487       C  0.37959751  0.70529206  0.80126428     0.10230
C2488       C  0.38272871  0.70042945  0.83592055    -0.06890
C2489       C  0.38972106  0.72245360  0.85703928    -0.18130
C2490       C  0.39199367  0.74929080  0.84496140     0.10260
S2491       S  0.37308272  0.67859732  0.77071840    -0.33090
S2492       S  0.40423370  0.77593757  0.87300537    -0.33100
H2493       H  0.40857355  0.75933124  0.90102919     0.28270
H2494       H  0.35918497  0.66096418  0.79215674     0.28270
H2495       H  0.37632740  0.73571510  0.76325195     0.18860
H2496       H  0.39352819  0.71847866  0.88323036     0.18870
C2497       C  0.36387639  0.85563565  0.61704815    -0.06970
C2498       C  0.38790373  0.84315112  0.60619463    -0.18090
C2499       C  0.40226390  0.85279198  0.57779070     0.10230
C2500       C  0.39440724  0.87732386  0.56192640    -0.06890
C2501       C  0.37198891  0.89084269  0.57521088    -0.18130
C2502       C  0.35510453  0.87861962  0.59873572     0.10260
S2503       S  0.43124562  0.83409115  0.56435478    -0.33090
S2504       S  0.32157521  0.89219028  0.60091374    -0.33100
H2505       H  0.30919256  0.86622577  0.60366757     0.28270
H2506       H  0.41865134  0.82458447  0.53491882     0.28270
H2507       H  0.39548367  0.82572205  0.61965082     0.18860
H2508       H  0.36538153  0.90981029  0.56429087     0.18870
C2509       C  0.17973156  0.87103876  0.64942954    -0.06970
C2510       C  0.18263457  0.88567948  0.67964515    -0.18090
C2511       C  0.20503023  0.88178856  0.70047447     0.10230
C2512       C  0.22507768  0.86273642  0.69109191    -0.06890
C2513       C  0.22125942  0.84699136  0.66199226    -0.18130
C2514       C  0.19893481  0.85082451  0.64126792     0.10260
S2515       S  0.20760046  0.90306102  0.73747166    -0.33090
S2516       S  0.19610160  0.83094114  0.60302598    -0.33100
H2517       H  0.21810320  0.81380686  0.60846160     0.28270
H2518       H  0.23549290  0.90617951  0.73624112     0.28270
H2519       H  0.16849247  0.90165395  0.68582876     0.18860
H2520       H  0.23649483  0.83242752  0.65476362     0.18870
C2521       C  0.35713215  0.91981041  0.90877272    -0.06970
C2522       C  0.38445401  0.92682213  0.91230740    -0.18090
C2523       C  0.39257145  0.95074880  0.92975568     0.10230
C2524       C  0.37299401  0.96784394  0.94452348    -0.06890
C2525       C  0.34600833  0.95949267  0.94341533    -0.18130
C2526       C  0.33796496  0.93567883  0.92625161     0.10260
S2527       S  0.42781823  0.95942165  0.92965637    -0.33090
S2528       S  0.30260207  0.92747903  0.92578384    -0.33100
H2529       H  0.30574794  0.89942178  0.91856503     0.28270
H2530       H  0.42486183  0.98801442  0.93070985     0.28270
H2531       H  0.39937837  0.91519563  0.89861339     0.18860
H2532       H  0.33087809  0.97212468  0.95529055     0.18870
C2533       C  0.37547547  0.27949040  0.59106952    -0.06970
C2534       C  0.39726990  0.27241421  0.61156308    -0.18090
C2535       C  0.39846225  0.24663450  0.62693770     0.10230
C2536       C  0.37733601  0.22765868  0.62190829    -0.06890
C2537       C  0.35547898  0.23492934  0.60218169    -0.18130
C2538       C  0.35399800  0.26048009  0.58726645     0.10260
S2539       S  0.42768275  0.23891025  0.65134522    -0.33090
S2540       S  0.32343643  0.26727386  0.56493784    -0.33100
H2541       H  0.32184655  0.29498157  0.57445761     0.28270
H2542       H  0.42605080  0.21026882  0.64772692     0.28270
H2543       H  0.41387113  0.28669155  0.61480052     0.18860
H2544       H  0.33891388  0.22056492  0.59888680     0.18870
C2545       C  0.40239129  0.10893776  0.87016625    -0.06970
C2546       C  0.39589625  0.13693810  0.86764554    -0.18090
C2547       C  0.38056294  0.14671560  0.84075401     0.10230
C2548       C  0.37113068  0.12803762  0.81616994    -0.06890
C2549       C  0.37969812  0.10072381  0.81735526    -0.18130
C2550       C  0.39561777  0.09122964  0.84328702     0.10260
S2551       S  0.37244229  0.18259360  0.84046766    -0.33090
S2552       S  0.40608519  0.05597354  0.84098298    -0.33100
H2553       H  0.42904900  0.05986709  0.86088147     0.28270
H2554       H  0.34863322  0.17984105  0.82202222     0.28270
H2555       H  0.40091613  0.15089906  0.88798935     0.18860
H2556       H  0.37413100  0.08649634  0.79749676     0.18870
C2557       C  0.17770040  0.10517684  0.78849538    -0.06970
C2558       C  0.18180762  0.09077512  0.75833058    -0.18090
C2559       C  0.20441119  0.09614983  0.73788522     0.10230
C2560       C  0.22377568  0.11611372  0.74784873    -0.06890
C2561       C  0.21893869  0.13136149  0.77707432    -0.18130
C2562       C  0.19611977  0.12642323  0.79710455     0.10260
S2563       S  0.20819361  0.07568169  0.70045776    -0.33090
S2564       S  0.19137563  0.14682470  0.83449887    -0.33100
H2565       H  0.21390434  0.16411563  0.83059550     0.28270
H2566       H  0.23577822  0.07201472  0.70432253     0.28270
H2567       H  0.16818165  0.07420203  0.75158683     0.18860
H2568       H  0.23357058  0.14672664  0.78467972     0.18870
C2569       C  0.26338978  0.96366598  0.73322108    -0.06970
C2570       C  0.25844910  0.96851499  0.69923086    -0.18090
C2571       C  0.25847825  0.99532852  0.68752455     0.10230
C2572       C  0.26444178  0.01669061  0.71055951    -0.06890
C2573       C  0.26024516  0.01196181  0.74481273    -0.18130
C2574       C  0.25910260  0.98516581  0.75651590     0.10260
S2575       S  0.25367589  0.00140724  0.64333983    -0.33090
S2576       S  0.25521645  0.97916662  0.80092452    -0.33100
H2577       H  0.24928270  0.00634669  0.81008773     0.28270
H2578       H  0.24621211  0.97440249  0.63455434     0.28270
H2579       H  0.25834223  0.95166461  0.68138689     0.18860
H2580       H  0.26142247  0.02877849  0.76265162     0.18870
C2581       C  0.37276721  0.01448694  0.49373816    -0.06970
C2582       C  0.34598558  0.02277622  0.49498463    -0.18090
C2583       C  0.33812186  0.04579656  0.51348503     0.10230
C2584       C  0.35742602  0.06111357  0.53157985    -0.06890
C2585       C  0.38469238  0.05459746  0.52751174    -0.18130
C2586       C  0.39257775  0.03131675  0.50895021     0.10260
S2587       S  0.30291676  0.05382241  0.51474821    -0.33090
S2588       S  0.42779718  0.02336949  0.50773100    -0.33100
H2589       H  0.42498470  0.99493574  0.50300887     0.28270
H2590       H  0.30650009  0.08171983  0.52293728     0.28270
H2591       H  0.33097081  0.01064358  0.48206222     0.18860
H2592       H  0.39971650  0.06610026  0.54144890     0.18870
C2593       C  0.95333919  0.86432454  0.60205823    -0.06970
C2594       C  0.97144384  0.88482698  0.61297352    -0.18090
C2595       C  0.99743850  0.88666416  0.60040063     0.10230
C2596       C  0.00632489  0.86741693  0.57641024    -0.06890
C2597       C  0.98858838  0.84681786  0.56525880    -0.18130
C2598       C  0.96244205  0.84468991  0.57820438     0.10260
S2599       S  0.01756108  0.91546176  0.61414031    -0.33090
S2600       S  0.94245740  0.81594316  0.56397667    -0.33100
H2601       H  0.93398631  0.80884919  0.59645159     0.28270
H2602       H  0.02411476  0.92347647  0.58137539     0.28270
H2603       H  0.96517464  0.90036987  0.63081640     0.18860
H2604       H  0.99533903  0.83196475  0.54679861     0.18870
C2605       C  0.76425391  0.01853561  0.72315381    -0.06970
C2606       C  0.76153125  0.01346301  0.68864755    -0.18090
C2607       C  0.76072879  0.98661952  0.67630239     0.10230
C2608       C  0.76337043  0.96497015  0.69932695    -0.06890
C2609       C  0.75793681  0.97022577  0.73331966    -0.18130
C2610       C  0.75807235  0.99708664  0.74564596     0.10260
S2611       S  0.75938782  0.98095884  0.63147827    -0.33090
S2612       S  0.75324494  0.00279600  0.79010459    -0.33100
H2613       H  0.74459666  0.97604164  0.79788096     0.28270
H2614       H  0.75431516  0.00823173  0.62257412     0.28270
H2615       H  0.76337181  0.03025062  0.67120921     0.18860
H2616       H  0.75713125  0.95341089  0.75082351     0.18870
C2617       C  0.95105318  0.11416152  0.83784151    -0.06970
C2618       C  0.96054219  0.13810470  0.85414189    -0.18090
C2619       C  0.98694116  0.14005421  0.86626408     0.10230
C2620       C  0.00441202  0.11779622  0.86155226    -0.06890
C2621       C  0.99492657  0.09395700  0.84563852    -0.18130
C2622       C  0.96847871  0.09153558  0.83479680     0.10260
S2623       S  0.99726503  0.17149497  0.88674931    -0.33090
S2624       S  0.95787089  0.05816549  0.81988970    -0.33100
H2625       H  0.93288319  0.05907492  0.83637481     0.28270
H2626       H  0.02476420  0.16908639  0.87968234     0.28270
H2627       H  0.94754515  0.15561602  0.85686570     0.18860
H2628       H  0.00793357  0.07637689  0.84325276     0.18870
C2629       C  0.50515596  0.86933081  0.85825894    -0.06970
C2630       C  0.49735290  0.84702077  0.83803166    -0.18090
C2631       C  0.47099895  0.84466950  0.82622943     0.10230
C2632       C  0.45240509  0.86530972  0.83449817    -0.06890
C2633       C  0.46027715  0.88753549  0.85457148    -0.18130
C2634       C  0.48641265  0.88991591  0.86629132     0.10260
S2635       S  0.46269255  0.81552788  0.79996495    -0.33090
S2636       S  0.49487263  0.92045753  0.89001971    -0.33100
H2637       H  0.52091125  0.92331467  0.87677081     0.28270
H2638       H  0.43522024  0.81443045  0.80765759     0.28270
H2639       H  0.51169286  0.83121536  0.83187735     0.18860
H2640       H  0.44612328  0.90364843  0.86027911     0.18870
C2641       C  0.67808419  0.88082668  0.78332593    -0.06970
C2642       C  0.68515920  0.85328302  0.77783849    -0.18090
C2643       C  0.70735254  0.84615396  0.75768267     0.10230
C2644       C  0.72291936  0.86700762  0.74243404    -0.06890
C2645       C  0.71492358  0.89433792  0.74637030    -0.18130
C2646       C  0.69274107  0.90141311  0.76616095     0.10260
S2647       S  0.71575658  0.81036742  0.75457125    -0.33090
S2648       S  0.68492285  0.93733831  0.76969376    -0.33100
H2649       H  0.65754714  0.93338341  0.77702557     0.28270
H2650       H  0.74351549  0.81398911  0.75013859     0.28270
H2651       H  0.67493463  0.83733129  0.79166309     0.18860
H2652       H  0.72661027  0.91050196  0.73461638     0.18870
C2653       C  0.98608089  0.86581130  0.06982066    -0.06970
C2654       C  0.00199121  0.88958558  0.06906967    -0.18090
C2655       C  0.02809611  0.88967982  0.08110033     0.10230
C2656       C  0.03860181  0.86540759  0.09448759    -0.06890
C2657       C  0.02294306  0.84129500  0.09443964    -0.18130
C2658       C  0.99665971  0.84123954  0.08218481     0.10260
S2659       S  0.04686003  0.92147922  0.07848951    -0.33090
S2660       S  0.97774813  0.80950348  0.08329509    -0.33100
H2661       H  0.95989762  0.81552974  0.05732671     0.28270
H2662       H  0.07223066  0.90957714  0.07487465     0.28270
H2663       H  0.99388873  0.90836607  0.05916340     0.18860
H2664       H  0.03099342  0.82264995  0.10472170     0.18870
C2665       C  0.86353520  0.85515616  0.81623762    -0.06970
C2666       C  0.88894514  0.84533278  0.82550272    -0.18090
C2667       C  0.90215312  0.85575243  0.85430835     0.10230
C2668       C  0.89090339  0.87814670  0.87214571    -0.06890
C2669       C  0.86679210  0.88888648  0.86051736    -0.18130
C2670       C  0.85148473  0.87508792  0.83694631     0.10260
S2671       S  0.93395961  0.84131345  0.86518697    -0.33090
S2672       S  0.81607808  0.88257621  0.83662980    -0.33100
H2673       H  0.80820343  0.85648761  0.82464633     0.28270
H2674       H  0.94499033  0.86594789  0.87783748     0.28270
H2675       H  0.89881561  0.83014107  0.80997116     0.18860
H2676       H  0.85817793  0.90683510  0.87211600     0.18870
C2677       C  0.86872888  0.01245416  0.94141046    -0.06970
C2678       C  0.84204747  0.02064411  0.93788847    -0.18090
C2679       C  0.83530999  0.04329843  0.91854843     0.10230
C2680       C  0.85554760  0.05811126  0.90128615    -0.06890
C2681       C  0.88249250  0.05118790  0.90670001    -0.18130
C2682       C  0.88928943  0.02843966  0.92637193     0.10260
S2683       S  0.80025223  0.05163092  0.91576498    -0.33090
S2684       S  0.92425763  0.01974993  0.92900158    -0.33100
H2685       H  0.92052148  0.99131206  0.93218156     0.28270
H2686       H  0.80441098  0.07947419  0.90825902     0.28270
H2687       H  0.82615035  0.00880707  0.94971290     0.18860
H2688       H  0.89820664  0.06205991  0.89326857     0.18870
C2689       C  0.71440475  0.95070850  0.96087232    -0.06970
C2690       C  0.72299866  0.92562149  0.97315931    -0.18090
C2691       C  0.74960549  0.91921409  0.97345713     0.10230
C2692       C  0.76868442  0.93935832  0.96488159    -0.06890
C2693       C  0.76059113  0.96457234  0.95200425    -0.18130
C2694       C  0.73322814  0.97026463  0.94917312     0.10260
S2695       S  0.75790893  0.88460369  0.98450839    -0.33090
S2696       S  0.72376927  0.00281065  0.93217034    -0.33100
H2697       H  0.69852466  0.00394870  0.94778825     0.28270
H2698       H  0.77529820  0.88133543  0.95709663     0.28270
H2699       H  0.70876349  0.90993054  0.98076347     0.18860
H2700       H  0.77542640  0.98004070  0.94546243     0.18870
C2701       C  0.50653545  0.11629234  0.57977042    -0.06970
C2702       C  0.49027550  0.13902251  0.57422535    -0.18090
C2703       C  0.46395288  0.13979709  0.58671013     0.10230
C2704       C  0.45360249  0.11724501  0.60504473    -0.06890
C2705       C  0.47028472  0.09473103  0.61062475    -0.18130
C2706       C  0.49628374  0.09388417  0.59794626     0.10260
S2707       S  0.44523233  0.17052122  0.57984358    -0.33090
S2708       S  0.51488240  0.06291737  0.60439473    -0.33100
H2709       H  0.52583381  0.06184595  0.57189351     0.28270
H2710       H  0.42729146  0.15730968  0.55771557     0.28270
H2711       H  0.49809030  0.15616615  0.55997098     0.18860
H2712       H  0.46278899  0.07707910  0.62419794     0.18870
C2713       C  0.68341083  0.11539812  0.63854596    -0.06970
C2714       C  0.70591131  0.13031044  0.62716280    -0.18090
C2715       C  0.72786825  0.13603805  0.64798126     0.10230
C2716       C  0.72802094  0.12627707  0.68122364    -0.06890
C2717       C  0.70494418  0.11263770  0.69332852    -0.18130
C2718       C  0.68270945  0.10720758  0.67244727     0.10260
S2719       S  0.75548892  0.15530100  0.63025781    -0.33090
S2720       S  0.65546737  0.08707089  0.68922861    -0.33100
H2721       H  0.63550751  0.10414713  0.67657827     0.28270
H2722       H  0.76362220  0.16757135  0.66063715     0.28270
H2723       H  0.70678334  0.13681881  0.60127369     0.18860
H2724       H  0.70483185  0.10475173  0.71861939     0.18870
C2725       C  0.98604078  0.11528425  0.35826772    -0.06970
C2726       C  0.99907291  0.09047057  0.35225034    -0.18090
C2727       C  0.02559207  0.08987132  0.34115385     0.10230
C2728       C  0.03954186  0.11474611  0.33532934    -0.06890
C2729       C  0.02667940  0.13971449  0.34199936    -0.18130
C2730       C  0.99997966  0.14026329  0.35331475     0.10260
S2731       S  0.04057177  0.05658941  0.33588600    -0.33090
S2732       S  0.98515413  0.17326696  0.36129961    -0.33100
H2733       H  0.95818548  0.16491003  0.35909032     0.28270
H2734       H  0.06705570  0.06501053  0.34257918     0.28270
H2735       H  0.98859119  0.07127697  0.35693048     0.18860
H2736       H  0.03719686  0.15886285  0.33739100     0.18870
C2737       C  0.90412007  0.11040850  0.56330336    -0.06970
C2738       C  0.89503962  0.13740905  0.56771784    -0.18090
C2739       C  0.88306632  0.14580788  0.59802623     0.10230
C2740       C  0.88064760  0.12688706  0.62442941    -0.06890
C2741       C  0.89267219  0.10113750  0.62111938    -0.18130
C2742       C  0.90453708  0.09283781  0.59107629     0.10260
S2743       S  0.86911455  0.17969862  0.60014849    -0.33090
S2744       S  0.91785889  0.05866419  0.58865142    -0.33100
H2745       H  0.93473679  0.06366690  0.56096990     0.28270
H2746       H  0.84743931  0.17308717  0.62130329     0.28270
H2747       H  0.89448811  0.15099593  0.54640762     0.18860
H2748       H  0.89172856  0.08682897  0.64173014     0.18870
C2749       C  0.87186606  0.96493889  0.48792132    -0.06970
C2750       C  0.89272390  0.94728146  0.49690831    -0.18090
C2751       C  0.88784548  0.92488890  0.51847409     0.10230
C2752       C  0.86132466  0.91897992  0.52935610    -0.06890
C2753       C  0.84044311  0.93482522  0.51681715    -0.18130
C2754       C  0.84545718  0.95827712  0.49803112     0.10260
S2755       S  0.91629794  0.90644138  0.53361658    -0.33090
S2756       S  0.81791883  0.98070951  0.48966010    -0.33100
H2757       H  0.79814438  0.96695872  0.50854097     0.28270
H2758       H  0.90806706  0.90723114  0.56734624     0.28270
H2759       H  0.91312312  0.95231828  0.48960735     0.18860
H2760       H  0.82008168  0.93028198  0.52473463     0.18870
C2761       C  0.77376164  0.04080041  0.45245830    -0.06970
C2762       C  0.76421682  0.06600962  0.46416560    -0.18090
C2763       C  0.73783723  0.07299416  0.45998776     0.10230
C2764       C  0.71955805  0.05305662  0.44854218    -0.06890
C2765       C  0.72869438  0.02826436  0.43529849    -0.18130
C2766       C  0.75600519  0.02218388  0.43601027     0.10260
S2767       S  0.72809177  0.10734945  0.47110939    -0.33090
S2768       S  0.76573576  0.99010040  0.41689269    -0.33100
H2769       H  0.79111856  0.98787085  0.43094199     0.28270
H2770       H  0.70886410  0.10879173  0.44551888     0.28270
H2771       H  0.77758937  0.08114893  0.47523047     0.18860
H2772       H  0.71445426  0.01309316  0.42612294     0.18870
C2773       C  0.61397273  0.85908490  0.12124717    -0.06970
C2774       C  0.60621833  0.88649765  0.11825723    -0.18090
C2775       C  0.59330468  0.89584386  0.08979291     0.10230
C2776       C  0.58885354  0.87772536  0.06252030    -0.06890
C2777       C  0.59400832  0.84962071  0.06683421    -0.18130
C2778       C  0.60645926  0.84008718  0.09600665     0.10260
S2779       S  0.58381511  0.93142271  0.08953841    -0.33090
S2780       S  0.61390158  0.80411216  0.09828353    -0.33100
H2781       H  0.63795148  0.80736895  0.11613365     0.28270
H2782       H  0.56235064  0.92758197  0.06717235     0.28270
H2783       H  0.61054071  0.90099092  0.13833406     0.18860
H2784       H  0.59049994  0.83535355  0.04631623     0.18870
C2785       C  0.76749608  0.85997475  0.19015586    -0.06970
C2786       C  0.77587450  0.83952890  0.16760644    -0.18090
C2787       C  0.79845919  0.84337968  0.14672425     0.10230
C2788       C  0.81372829  0.86808021  0.14896482    -0.06890
C2789       C  0.80603734  0.88782969  0.17287314    -0.18130
C2790       C  0.78327462  0.88412012  0.19329322     0.10260
S2791       S  0.80470976  0.81686450  0.11581823    -0.33090
S2792       S  0.77412121  0.91213164  0.22070096    -0.33100
H2793       H  0.76035957  0.89630653  0.24460304     0.28270
H2794       H  0.82635588  0.82905262  0.09892493     0.28270
H2795       H  0.76374023  0.82110283  0.16471174     0.18860
H2796       H  0.81678900  0.90724651  0.17401192     0.18870
C2797       C  0.53612750  0.86308099  0.33155786    -0.06970
C2798       C  0.52133175  0.88732809  0.33126009    -0.18090
C2799       C  0.49518240  0.88824416  0.34364932     0.10230
C2800       C  0.48291151  0.86434013  0.35660435    -0.06890
C2801       C  0.49758839  0.84004744  0.35746431    -0.18130
C2802       C  0.52404748  0.83918316  0.34523760     0.10260
S2803       S  0.47923895  0.92112754  0.34427854    -0.33090
S2804       S  0.54085969  0.80685452  0.34658355    -0.33100
H2805       H  0.55967628  0.81630757  0.37028622     0.28270
H2806       H  0.45570448  0.91141877  0.32902990     0.28270
H2807       H  0.53035657  0.90599287  0.32163503     0.18860
H2808       H  0.48847671  0.82174521  0.36792933     0.18870
C2809       C  0.61815580  0.96641360  0.44365796    -0.06970
C2810       C  0.59716108  0.95042583  0.43011500    -0.18090
C2811       C  0.60243701  0.92796492  0.40862492     0.10230
C2812       C  0.62929536  0.92081034  0.40113551    -0.06890
C2813       C  0.65001686  0.93544804  0.41734834    -0.18130
C2814       C  0.64480056  0.95791410  0.43831469     0.10260
S2815       S  0.57421465  0.91119222  0.38899000    -0.33090
S2816       S  0.67323605  0.97582907  0.45620784    -0.33100
H2817       H  0.65988691  0.98522227  0.48514261     0.28270
H2818       H  0.58505080  0.91243766  0.35643806     0.28270
H2819       H  0.57662806  0.95669903  0.43418187     0.18860
H2820       H  0.67070533  0.93029122  0.41207736     0.18870
C2821       C  0.59163677  0.11808921  0.37594670    -0.06970
C2822       C  0.61384248  0.13607320  0.37652991    -0.18090
C2823       C  0.62616591  0.14477352  0.34683992     0.10230
C2824       C  0.61581062  0.13563941  0.31591287    -0.06890
C2825       C  0.59227731  0.11953743  0.31530721    -0.18130
C2826       C  0.58017342  0.11054032  0.34502405     0.10260
S2827       S  0.65613048  0.16563092  0.35001054    -0.33090
S2828       S  0.55134892  0.08806558  0.34197929    -0.33100
H2829       H  0.54119360  0.09378898  0.37419830     0.28270
H2830       H  0.65406976  0.17765100  0.31826260     0.28270
H2831       H  0.62290524  0.14168064  0.40028360     0.18860
H2832       H  0.58430261  0.11241469  0.29151456     0.18870
C2833       C  0.76675342  0.11567720  0.24843347    -0.06970
C2834       C  0.77322369  0.08810164  0.25319080    -0.18090
C2835       C  0.79625717  0.08045038  0.27057721     0.10230
C2836       C  0.81325518  0.10073953  0.28524394    -0.06890
C2837       C  0.80771917  0.12845453  0.27864903    -0.18130
C2838       C  0.78473828  0.13610766  0.26049633     0.10260
S2839       S  0.80255592  0.04419905  0.27333992    -0.33090
S2840       S  0.77868650  0.17219149  0.25557146    -0.33100
H2841       H  0.75058351  0.17031981  0.25433563     0.28270
H2842       H  0.83060882  0.04706691  0.27524798     0.28270
H2843       H  0.76000992  0.07220527  0.24332565     0.18860
H2844       H  0.82024164  0.14435618  0.28973086     0.18870
C2845       C  0.72215971  0.96535323  0.23157195    -0.06970
C2846       C  0.72628091  0.97175291  0.19777517    -0.18090
C2847       C  0.72577958  0.99888766  0.18722044     0.10230
C2848       C  0.72067496  0.01965207  0.21139498    -0.06890
C2849       C  0.72366473  0.01357731  0.24544379    -0.18130
C2850       C  0.72477318  0.98643094  0.25596630     0.10260
S2851       S  0.72850730  0.00557774  0.14281178    -0.33090
S2852       S  0.72640915  0.97966149  0.30038755    -0.33100
H2853       H  0.73205365  0.00671423  0.31087276     0.28270
H2854       H  0.73634324  0.97913758  0.13275603     0.28270
H2855       H  0.72664543  0.95540526  0.17924546     0.18860
H2856       H  0.72216285  0.02983860  0.26398420     0.18870
C2857       C  0.48840486  0.12128286  0.07333246    -0.06970
C2858       C  0.49321529  0.13786228  0.10170257    -0.18090
C2859       C  0.51879715  0.13948783  0.11618392     0.10230
C2860       C  0.54001020  0.12419453  0.10214236    -0.06890
C2861       C  0.53540371  0.10808797  0.07368929    -0.18130
C2862       C  0.50992335  0.10586379  0.05971496     0.10260
S2863       S  0.52323142  0.16132504  0.15242313    -0.33090
S2864       S  0.50602676  0.08058156  0.02693612    -0.33100
H2865       H  0.48283007  0.06880425  0.04111622     0.28270
H2866       H  0.54998562  0.16856471  0.14522304     0.28270
H2867       H  0.47701915  0.14963045  0.11259532     0.18860
H2868       H  0.55149912  0.09578306  0.06344897     0.18870
C2869       C  0.63294523  0.06161863  0.03466314    -0.06970
C2870       C  0.60575702  0.05565503  0.02817091    -0.18090
C2871       C  0.59809690  0.03345409  0.00724134     0.10230
C2872       C  0.61807413  0.01709816  0.99199279    -0.06890
C2873       C  0.64507423  0.02448391  0.99651427    -0.18130
C2874       C  0.65266902  0.04656136  0.01710359     0.10260
S2875       S  0.56273310  0.02605149  0.00319763    -0.33090
S2876       S  0.68807430  0.05373460  0.02109933    -0.33100
H2877       H  0.68526407  0.08154569  0.02986837     0.28270
H2878       H  0.56475363  0.99792447  0.99605690     0.28270
H2879       H  0.59040733  0.06681573  0.04166986     0.18860
H2880       H  0.66053453  0.01222094  0.98479605     0.18870
C2881       C  0.61515788  0.20254866  0.58718490    -0.06970
C2882       C  0.60026185  0.20681829  0.61691994    -0.18090
C2883       C  0.59927173  0.23271355  0.63280364     0.10230
C2884       C  0.61318563  0.25509683  0.61853056    -0.06890
C2885       C  0.62768010  0.25098755  0.58880489    -0.18130
C2886       C  0.62916489  0.22535160  0.57311237     0.10260
S2887       S  0.57951842  0.23711401  0.67046849    -0.33090
S2888       S  0.65050342  0.22286825  0.53627312    -0.33100
H2889       H  0.65412359  0.25107900  0.53060542     0.28270
H2890       H  0.57097534  0.20966968  0.67339928     0.28270
H2891       H  0.58930295  0.18981372  0.62781076     0.18860
H2892       H  0.63907535  0.26794666  0.57848060     0.18870
C2893       C  0.53773360  0.36772049  0.60207682    -0.06970
C2894       C  0.52670040  0.34256937  0.59111089    -0.18090
C2895       C  0.50076171  0.34108470  0.57781916     0.10230
C2896       C  0.48583858  0.36530024  0.57517127    -0.06890
C2897       C  0.49707216  0.39038861  0.58532241    -0.18130
C2898       C  0.52288807  0.39196983  0.59829770     0.10260
S2899       S  0.48790622  0.30794076  0.56492573    -0.33090
S2900       S  0.53589944  0.42573362  0.60826160    -0.33100
H2901       H  0.56286247  0.41996745  0.60101030     0.28270
H2902       H  0.46054342  0.31396651  0.56829862     0.28270
H2903       H  0.53801032  0.32390357  0.59386561     0.18860
H2904       H  0.48577233  0.40906841  0.58242369     0.18870
C2905       C  0.60945094  0.72828591  0.81968358    -0.06970
C2906       C  0.61061976  0.75098999  0.79811078    -0.18090
C2907       C  0.61165789  0.77799053  0.81040619     0.10230
C2908       C  0.61146103  0.78295762  0.84540725    -0.06890
C2909       C  0.60859619  0.76050155  0.86689590    -0.18130
C2910       C  0.60690220  0.73355735  0.85464828     0.10260
S2911       S  0.61498607  0.80478312  0.77984609    -0.33090
S2912       S  0.60105635  0.70738472  0.88549022    -0.33100
H2913       H  0.58301657  0.69226479  0.86550938     0.28270
H2914       H  0.63296270  0.82062777  0.79888512     0.28270
H2915       H  0.61219837  0.74782150  0.77127860     0.18860
H2916       H  0.60728268  0.76399695  0.89371670     0.18870
C2917       C  0.71292952  0.46650114  0.71243077    -0.06970
C2918       C  0.71368769  0.48023745  0.68166567    -0.18090
C2919       C  0.71898002  0.50820511  0.68080605     0.10230
C2920       C  0.72393065  0.52173760  0.71148518    -0.06890
C2921       C  0.73339763  0.50607701  0.73832642    -0.18130
C2922       C  0.72604673  0.47849653  0.74023445     0.10260
S2923       S  0.71335924  0.52554544  0.64179848    -0.33090
S2924       S  0.72870631  0.46233167  0.78045734    -0.33100
H2925       H  0.73719447  0.43712973  0.76741047     0.28270
H2926       H  0.72896338  0.54872557  0.64982849     0.28270
H2927       H  0.70658906  0.47016308  0.65915153     0.18860
H2928       H  0.74018627  0.51632917  0.76101900     0.18870
C2929       C  0.53926989  0.61690732  0.83391046    -0.06970
C2930       C  0.52724911  0.59201045  0.84311617    -0.18090
C2931       C  0.50157088  0.59114264  0.85699507     0.10230
C2932       C  0.48720363  0.61566491  0.86132177    -0.06890
C2933       C  0.49911265  0.64068294  0.85225068    -0.18130
C2934       C  0.52497481  0.64155743  0.83829957     0.10260
S2935       S  0.48782522  0.55792682  0.86733229    -0.33090
S2936       S  0.53778695  0.67437335  0.82480212    -0.33100
H2937       H  0.55309780  0.66441322  0.79775011     0.28270
H2938       H  0.47463402  0.56644436  0.89671014     0.28270
H2939       H  0.53801978  0.57302854  0.83948742     0.18860
H2940       H  0.48794257  0.65947508  0.85518766     0.18870
C2941       C  0.50509709  0.36347523  0.07994831    -0.06970
C2942       C  0.49717718  0.38690795  0.09770920    -0.18090
C2943       C  0.47076969  0.39015191  0.10855578     0.10230
C2944       C  0.45181057  0.36866894  0.10354433    -0.06890
C2945       C  0.45986825  0.34501836  0.08584605    -0.18130
C2946       C  0.48619500  0.34232938  0.07376205     0.10260
S2947       S  0.46227708  0.42324831  0.12580304    -0.33090
S2948       S  0.49454726  0.31142576  0.05107745    -0.33100
H2949       H  0.52206668  0.31205304  0.05854417     0.28270
H2950       H  0.43744174  0.42452375  0.10931288     0.28270
H2951       H  0.51131688  0.40373756  0.10117725     0.18860
H2952       H  0.44570449  0.32833600  0.08175913     0.18870
C2953       C  0.58434346  0.37086110  0.87183794    -0.06970
C2954       C  0.58909786  0.34245908  0.86862613    -0.18090
C2955       C  0.60459374  0.33177743  0.84194096     0.10230
C2956       C  0.61613884  0.34993818  0.81845244    -0.06890
C2957       C  0.60909084  0.37769417  0.82007964    -0.18130
C2958       C  0.59299993  0.38816198  0.84565265     0.10260
S2959       S  0.60971926  0.29530276  0.84023421    -0.33090
S2960       S  0.58502798  0.42410924  0.84374068    -0.33100
H2961       H  0.56050185  0.42152260  0.86104693     0.28270
H2962       H  0.63392445  0.29612146  0.82212756     0.28270
H2963       H  0.58232888  0.32870933  0.88815281     0.18860
H2964       H  0.61587316  0.39153220  0.80072631     0.18870
C2965       C  0.62090815  0.50875271  0.93354346    -0.06970
C2966       C  0.64807738  0.51564479  0.92919365    -0.18090
C2967       C  0.65609489  0.53915452  0.91177525     0.10230
C2968       C  0.63664450  0.55625330  0.89731046    -0.06890
C2969       C  0.60936830  0.55034721  0.90349574    -0.18130
C2970       C  0.60131225  0.52674427  0.92121436     0.10260
S2971       S  0.69163513  0.54572728  0.90781851    -0.33090
S2972       S  0.56586787  0.51960406  0.92471522    -0.33100
H2973       H  0.56781137  0.49088927  0.92407588     0.28270
H2974       H  0.68940953  0.57415514  0.90320858     0.28270
H2975       H  0.66329691  0.50233471  0.93916851     0.18860
H2976       H  0.59418326  0.56281741  0.89198198     0.18870
C2977       C  0.61463698  0.23197433  0.12197770    -0.06970
C2978       C  0.60026471  0.23404974  0.09188951    -0.18090
C2979       C  0.59658769  0.25934116  0.07656952     0.10230
C2980       C  0.60745400  0.28323779  0.09154984    -0.06890
C2981       C  0.62017692  0.28158791  0.12260524    -0.18130
C2982       C  0.62443078  0.25629549  0.13763440     0.10260
S2983       S  0.57807446  0.25979525  0.03785147    -0.33090
S2984       S  0.64502776  0.25661645  0.17461841    -0.33100
H2985       H  0.66218587  0.23600130  0.16260064     0.28270
H2986       H  0.56866921  0.28671803  0.04158217     0.28270
H2987       H  0.59218994  0.21576840  0.07985086     0.18860
H2988       H  0.62878531  0.29993695  0.13393594     0.18870
C2989       C  0.98408626  0.35759897  0.85894907    -0.06970
C2990       C  0.98768394  0.36378887  0.82492579    -0.18090
C2991       C  0.01308726  0.36544944  0.81024865     0.10230
C2992       C  0.03629601  0.36059753  0.82962481    -0.06890
C2993       C  0.03270030  0.35259303  0.86312388    -0.18130
C2994       C  0.00708356  0.35088181  0.87799202     0.10260
S2995       S  0.01388105  0.37339204  0.76637211    -0.33090
S2996       S  0.00458291  0.33961125  0.92099056    -0.33100
H2997       H  0.03217518  0.33713932  0.92716609     0.28270
H2998       H  0.02324215  0.40030771  0.77236856     0.28270
H2999       H  0.97055295  0.36851225  0.80952476     0.18860
H3000       H  0.05015460  0.34808375  0.87798450     0.18870
C3001       C  0.77155496  0.43657983  0.96314087    -0.06970
C3002       C  0.75922343  0.41086126  0.95997044    -0.18090
C3003       C  0.73211615  0.40868576  0.95367778     0.10230
C3004       C  0.71679268  0.43265024  0.95298490    -0.06890
C3005       C  0.72908859  0.45850154  0.95574361    -0.18130
C3006       C  0.75660849  0.46072448  0.96041723     0.10260
S3007       S  0.71782021  0.37473062  0.94948316    -0.33090
S3008       S  0.77133924  0.49455945  0.96405066    -0.33100
H3009       H  0.79379265  0.48674213  0.98271531     0.28270
H3010       H  0.70177340  0.38141129  0.92195524     0.28270
H3011       H  0.77105670  0.39235058  0.96046880     0.18860
H3012       H  0.71698624  0.47681746  0.95634425     0.18870
C3013       C  0.87739550  0.23031325  0.81610540    -0.06970
C3014       C  0.86663949  0.25180584  0.79726454    -0.18090
C3015       C  0.86683933  0.27882388  0.80918662     0.10230
C3016       C  0.87741925  0.28475557  0.84111742    -0.06890
C3017       C  0.88901286  0.26364092  0.85956423    -0.18130
C3018       C  0.88975235  0.23671746  0.84710580     0.10260
S3019       S  0.85084747  0.30425378  0.78402446    -0.33090
S3020       S  0.90722589  0.21181959  0.87163326    -0.33100
H3021       H  0.91761469  0.19760046  0.84370503     0.28270
H3022       H  0.87224530  0.32314681  0.78592303     0.28270
H3023       H  0.85699162  0.24746940  0.77350491     0.18860
H3024       H  0.89757433  0.26820215  0.88392794     0.18870
C3025       C  0.81233252  0.38547485  0.78591388    -0.06970
C3026       C  0.80124707  0.35884879  0.78782255    -0.18090
C3027       C  0.77719951  0.35155439  0.77139184     0.10230
C3028       C  0.76391405  0.37112738  0.75175617    -0.06890
C3029       C  0.77580254  0.39721567  0.74825078    -0.18130
C3030       C  0.79939526  0.40470261  0.76541523     0.10260
S3031       S  0.76423681  0.31728968  0.77768998    -0.33090
S3032       S  0.81130249  0.43954725  0.76146149    -0.33100
H3033       H  0.83809656  0.43419471  0.76971562     0.28270
H3034       H  0.73731071  0.32231582  0.77007345     0.28270
H3035       H  0.81015292  0.34423150  0.80457819     0.18860
H3036       H  0.76617332  0.41221854  0.73265746     0.18870
C3037       C  0.87020174  0.25079859  0.32001327    -0.06970
C3038       C  0.88631132  0.24838069  0.34860250    -0.18090
C3039       C  0.88972742  0.22285983  0.36387055     0.10230
C3040       C  0.87724358  0.19944792  0.34980814    -0.06890
C3041       C  0.86162473  0.20172366  0.32111719    -0.18130
C3042       C  0.85728222  0.22709542  0.30670351     0.10260
S3043       S  0.91041305  0.22004116  0.40064937    -0.33090
S3044       S  0.83299436  0.22787557  0.27347106    -0.33100
H3045       H  0.82027942  0.25146595  0.28598356     0.28270
H3046       H  0.91741262  0.24798223  0.40326564     0.28270
H3047       H  0.89621502  0.26643174  0.35883907     0.18860
H3048       H  0.85138124  0.18376169  0.31104896     0.18870
C3049       C  0.87342188  0.32432984  0.11374650    -0.06970
C3050       C  0.89843532  0.33809485  0.11539574    -0.18090
C3051       C  0.90904258  0.35198555  0.08754775     0.10230
C3052       C  0.89475976  0.35121663  0.05724925    -0.06890
C3053       C  0.87156278  0.33465214  0.05476303    -0.18130
C3054       C  0.86072087  0.32140347  0.08259177     0.10260
S3055       S  0.93887687  0.37263229  0.09334470    -0.33090
S3056       S  0.82944683  0.30297208  0.07753145    -0.33100
H3057       H  0.83243166  0.28633637  0.10584025     0.28270
H3058       H  0.94620464  0.37391826  0.05936794     0.28270
H3059       H  0.90846944  0.34045840  0.13925752     0.18860
H3060       H  0.86059915  0.33354930  0.03143581     0.18870
C3061       C  0.73298977  0.37058816  0.16795110    -0.06970
C3062       C  0.70749603  0.36482073  0.18230293    -0.18090
C3063       C  0.68324644  0.37172516  0.16618706     0.10230
C3064       C  0.68398041  0.38530279  0.13500845    -0.06890
C3065       C  0.70934685  0.39099345  0.12093880    -0.18130
C3066       C  0.73332172  0.38317791  0.13596120     0.10260
S3067       S  0.65223476  0.36375889  0.18739942    -0.33090
S3068       S  0.76329278  0.38962090  0.11165052    -0.33100
H3069       H  0.77159655  0.36216795  0.11292474     0.28270
H3070       H  0.63897404  0.38746619  0.17698465     0.28270
H3071       H  0.70631277  0.35518376  0.20660564     0.18860
H3072       H  0.71070954  0.40099336  0.09691278     0.18870
C3073       C  0.95078342  0.36147894  0.33810991    -0.06970
C3074       C  0.96319147  0.33716833  0.34789654    -0.18090
C3075       C  0.98945461  0.33765875  0.36031405     0.10230
C3076       C  0.00313382  0.36301509  0.36335153    -0.06890
C3077       C  0.99030379  0.38725457  0.35484994    -0.18130
C3078       C  0.96430907  0.38683329  0.34250189     0.10260
S3079       S  0.00456193  0.30544236  0.37073632    -0.33090
S3080       S  0.94976369  0.41943176  0.33236137    -0.33100
H3081       H  0.92295929  0.41132930  0.33725869     0.28270
H3082       H  0.03141855  0.31382450  0.36668534     0.28270
H3083       H  0.95296714  0.31767101  0.34415725     0.18860
H3084       H  0.00069804  0.40676458  0.35787017     0.18870
C3085       C  0.88415159  0.72774176  0.11365214    -0.06970
C3086       C  0.88470287  0.75084230  0.13510400    -0.18090
C3087       C  0.88419227  0.77745020  0.12265468     0.10230
C3088       C  0.88334827  0.78147682  0.08767006    -0.06890
C3089       C  0.88539129  0.75860879  0.06619591    -0.18130
C3090       C  0.88653571  0.73198184  0.07869692     0.10260
S3091       S  0.88263899  0.80492327  0.15310187    -0.33090
S3092       S  0.89154790  0.70472017  0.04859949    -0.33100
H3093       H  0.90846931  0.68967355  0.06953188     0.28270
H3094       H  0.86189953  0.81866910  0.13702550     0.28270
H3095       H  0.88369596  0.74835785  0.16202450     0.18860
H3096       H  0.88621565  0.76150582  0.03931191     0.18870
C3097       C  0.80707734  0.51567487  0.22484389    -0.06970
C3098       C  0.83430824  0.50920495  0.22655603    -0.18090
C3099       C  0.84344666  0.48429200  0.21433178     0.10230
C3100       C  0.82464664  0.46471141  0.20275078    -0.06890
C3101       C  0.79730501  0.47058924  0.20237335    -0.18130
C3102       C  0.78830848  0.49600607  0.21316199     0.10260
S3103       S  0.87917624  0.47830164  0.21193385    -0.33090
S3104       S  0.75291223  0.50242578  0.21042129    -0.33100
H3105       H  0.75280488  0.52218376  0.23603545     0.28270
H3106       H  0.88756720  0.50275243  0.22783076     0.28270
H3107       H  0.84878822  0.52475450  0.23409707     0.18860
H3108       H  0.78285812  0.45513563  0.19436305     0.18870
C3109       C  0.94814964  0.62056749  0.10184786    -0.06970
C3110       C  0.97008289  0.62967237  0.12098424    -0.18090
C3111       C  0.99604994  0.63041111  0.10760037     0.10230
C3112       C  0.00065971  0.62055443  0.07458636    -0.06890
C3113       C  0.97837888  0.61279769  0.05493678    -0.18130
C3114       C  0.95233645  0.61259348  0.06817811     0.10260
S3115       S  0.02204938  0.64500748  0.13371390    -0.33090
S3116       S  0.92568309  0.59999157  0.04159669    -0.33100
H3117       H  0.91245097  0.58503473  0.06682563     0.28270
H3118       H  0.03549054  0.65822186  0.10717996     0.28270
H3119       H  0.96688792  0.63658458  0.14657502     0.18860
H3120       H  0.98130825  0.60533933  0.02954359     0.18870
C3121       C  0.87919103  0.50831736  0.00923350    -0.06970
C3122       C  0.86957205  0.53263605  0.99493529    -0.18090
C3123       C  0.85925735  0.55413908  0.01507477     0.10230
C3124       C  0.85838504  0.55130816  0.05031547    -0.06890
C3125       C  0.86968103  0.52780957  0.06435500    -0.18130
C3126       C  0.88033963  0.50678489  0.04455647     0.10260
S3127       S  0.84612056  0.58365842  0.99427577    -0.33090
S3128       S  0.89511439  0.47837495  0.06614616    -0.33100
H3129       H  0.91363263  0.47196734  0.04062785     0.28270
H3130       H  0.82654702  0.58982158  0.01855638     0.28270
H3131       H  0.86848066  0.53419889  0.96791889     0.18860
H3132       H  0.87035010  0.52579830  0.09136452     0.18870
C3133       C  0.98301014  0.62688940  0.57850389    -0.06970
C3134       C  0.98795565  0.60976785  0.60572091    -0.18090
C3135       C  0.01363604  0.60678325  0.61892952     0.10230
C3136       C  0.03554180  0.62154685  0.60449116    -0.06890
C3137       C  0.03024203  0.63953822  0.57789785    -0.18130
C3138       C  0.00435756  0.64253541  0.56506445     0.10260
S3139       S  0.01724156  0.58315110  0.65338520    -0.33090
S3140       S  0.99982880  0.66703274  0.53210836    -0.33100
H3141       H  0.97346556  0.67383172  0.54139607     0.28270
H3142       H  0.98986636  0.57807075  0.65962362     0.28270
H3143       H  0.97168228  0.59740676  0.61568511     0.18860
H3144       H  0.04636740  0.65147424  0.56681618     0.18870
C3145       C  0.87499326  0.65466718  0.31800975    -0.06970
C3146       C  0.89961752  0.64081532  0.31630206    -0.18090
C3147       C  0.91128457  0.62978057  0.34505361     0.10230
C3148       C  0.89843367  0.63333543  0.37619731    -0.06890
C3149       C  0.87557798  0.64995929  0.37822231    -0.18130
C3150       C  0.86358704  0.66034685  0.34950285     0.10260
S3151       S  0.94070329  0.60905222  0.33998639    -0.33090
S3152       S  0.83246631  0.67841558  0.35421657    -0.33100
H3153       H  0.83416491  0.69223454  0.32349193     0.28270
H3154       H  0.94926106  0.61130350  0.37341452     0.28270
H3155       H  0.90841622  0.63614591  0.29205417     0.18860
H3156       H  0.86551663  0.65287066  0.40207961     0.18870
C3157       C  0.87350346  0.47620677  0.42605938    -0.06970
C3158       C  0.88987507  0.45282083  0.42601415    -0.18090
C3159       C  0.88358539  0.42941421  0.40611894     0.10230
C3160       C  0.86058103  0.42932602  0.38534038    -0.06890
C3161       C  0.84325797  0.45166505  0.38792455    -0.18130
C3162       C  0.84923013  0.47477000  0.40756901     0.10260
S3163       S  0.90624149  0.40106389  0.40714319    -0.33090
S3164       S  0.82517049  0.50219802  0.40784051    -0.33100
H3165       H  0.80386027  0.48793014  0.39235569     0.28270
H3166       H  0.88571526  0.38134776  0.41106207     0.28270
H3167       H  0.90803182  0.45303029  0.44078819     0.18860
H3168       H  0.82524678  0.45158568  0.37288391     0.18870
C3169       C  0.87038689  0.69681731  0.59844772    -0.06970
C3170       C  0.89488143  0.71000593  0.60576462    -0.18090
C3171       C  0.89556419  0.73682956  0.61863628     0.10230
C3172       C  0.87122024  0.75059082  0.62415763    -0.06890
C3173       C  0.84683761  0.73705346  0.61802960    -0.18130
C3174       C  0.84608761  0.71035939  0.60544176     0.10260
S3175       S  0.92792160  0.75242458  0.62640308    -0.33090
S3176       S  0.81340764  0.69501970  0.59868024    -0.33100
H3177       H  0.82130956  0.66766538  0.60195747     0.28270
H3178       H  0.91931970  0.77266029  0.64914871     0.28270
H3179       H  0.91356860  0.69974124  0.60026461     0.18860
H3180       H  0.82813080  0.74756665  0.62272827     0.18870
C3181       C  0.81255711  0.59626332  0.64956371    -0.06970
C3182       C  0.80895418  0.62398958  0.65872914    -0.18090
C3183       C  0.78569485  0.63277110  0.67600367     0.10230
C3184       C  0.76571717  0.61338815  0.68520984    -0.06890
C3185       C  0.77069555  0.58555529  0.67886564    -0.18130
C3186       C  0.79352815  0.57682758  0.66135369     0.10260
S3187       S  0.78195215  0.66899781  0.68344398    -0.33090
S3188       S  0.79685008  0.54045206  0.65425849    -0.33100
H3189       H  0.82499399  0.54091368  0.65183744     0.28270
H3190       H  0.75388515  0.66920025  0.68060916     0.28270
H3191       H  0.82328359  0.63922431  0.65013027     0.18860
H3192       H  0.75643713  0.57032958  0.68758890     0.18870
C3193       C  0.50177405  0.61988603  0.36237878    -0.06970
C3194       C  0.49370257  0.59626847  0.34482699    -0.18090
C3195       C  0.46819585  0.59379313  0.33106453     0.10230
C3196       C  0.45023233  0.61595826  0.33349555    -0.06890
C3197       C  0.45839624  0.63975408  0.35126250    -0.18130
C3198       C  0.48397094  0.64194197  0.36570395     0.10260
S3199       S  0.45942558  0.56095793  0.31313451    -0.33090
S3200       S  0.49289869  0.67346902  0.38699753    -0.33100
H3201       H  0.52074601  0.67154360  0.38215483     0.28270
H3202       H  0.43430422  0.56027722  0.32905377     0.28270
H3203       H  0.50719204  0.57904064  0.34286059     0.18860
H3204       H  0.44500554  0.65701743  0.35333581     0.18870
C3205       C  0.59612740  0.61037876  0.56406001    -0.06970
C3206       C  0.62016001  0.59939883  0.57590232    -0.18090
C3207       C  0.63683969  0.61399621  0.59763615     0.10230
C3208       C  0.62651940  0.63619539  0.61651643    -0.06890
C3209       C  0.60097390  0.64597683  0.60750552    -0.18130
C3210       C  0.58633658  0.63416167  0.58053716     0.10260
S3211       S  0.67173927  0.60440348  0.59712142    -0.33090
S3212       S  0.55473668  0.64920681  0.57002867    -0.33100
H3213       H  0.54220327  0.62416727  0.56139356     0.28270
H3214       H  0.68128722  0.63164713  0.59866303     0.28270
H3215       H  0.62786983  0.58062736  0.56521051     0.18860
H3216       H  0.59223844  0.66274324  0.62159957     0.18870
C3217       C  0.62146663  0.47478801  0.50022379    -0.06970
C3218       C  0.60193986  0.45398910  0.50485137    -0.18090
C3219       C  0.60724686  0.43054173  0.52438871     0.10230
C3220       C  0.63263659  0.42766548  0.53980661    -0.06890
C3221       C  0.65253378  0.44729655  0.53245595    -0.18130
C3222       C  0.64731465  0.47044609  0.51347858     0.10260
S3223       S  0.58039153  0.40620209  0.53058729    -0.33090
S3224       S  0.67488212  0.49387684  0.50778254    -0.33100
H3225       H  0.66907668  0.49801404  0.47377432     0.28270
H3226       H  0.59657325  0.38328365  0.52442174     0.28270
H3227       H  0.58213752  0.45650560  0.49438393     0.18860
H3228       H  0.67231988  0.44536961  0.54327192     0.18870
C3229       C  0.71899730  0.54820147  0.46682206    -0.06970
C3230       C  0.73051521  0.52225230  0.46652838    -0.18090
C3231       C  0.75816979  0.51967597  0.46785856     0.10230
C3232       C  0.77402658  0.54374164  0.46668428    -0.06890
C3233       C  0.76232418  0.56960032  0.46638424    -0.18130
C3234       C  0.73486247  0.57211420  0.46722256     0.10260
S3235       S  0.77131327  0.48537739  0.46991324    -0.33090
S3236       S  0.72019065  0.60588931  0.46648155    -0.33100
H3237       H  0.74428982  0.62109700  0.46799905     0.28270
H3238       H  0.79874165  0.49171351  0.46986126     0.28270
H3239       H  0.71810956  0.50404585  0.46402634     0.18860
H3240       H  0.77483085  0.58792346  0.46677808     0.18870
C3241       C  0.61436002  0.69757699  0.33530492    -0.06970
C3242       C  0.59043331  0.70916396  0.32399201    -0.18090
C3243       C  0.59042086  0.73526557  0.30963672     0.10230
C3244       C  0.61478536  0.75010031  0.30736594    -0.06890
C3245       C  0.63872707  0.73796718  0.31710734    -0.18130
C3246       C  0.63890345  0.71173135  0.33033321     0.10260
S3247       S  0.55876341  0.74849157  0.29582952    -0.33090
S3248       S  0.67120859  0.69746876  0.33978651    -0.33100
H3249       H  0.66382385  0.67005064  0.33326368     0.28270
H3250       H  0.56887559  0.76968666  0.27569068     0.28270
H3251       H  0.57159105  0.69822070  0.32731225     0.18860
H3252       H  0.65754315  0.74911316  0.31436951     0.18870
C3253       C  0.72336600  0.61676329  0.25566138    -0.06970
C3254       C  0.70029661  0.63306688  0.25310477    -0.18090
C3255       C  0.67563051  0.62541272  0.26846910     0.10230
C3256       C  0.67347802  0.60054999  0.28668082    -0.06890
C3257       C  0.69621072  0.58370688  0.28704811    -0.18130
C3258       C  0.72081432  0.59156211  0.27288371     0.10260
S3259       S  0.64786539  0.64820420  0.26359767    -0.33090
S3260       S  0.74844323  0.56815611  0.27673459    -0.33100
H3261       H  0.73719346  0.55101697  0.30134759     0.28270
H3262       H  0.62927621  0.62697051  0.25691874     0.28270
H3263       H  0.70155139  0.65211490  0.23943824     0.18860
H3264       H  0.69515425  0.56422222  0.29967220     0.18870
loop_ 
_geom_bond_atom_site_label_1 
_geom_bond_atom_site_label_2 
_geom_bond_distance 
_geom_bond_site_symmetry_2 
_ccdc_geom_bond_type 
Zr1           O2   2.435       .  S
Zr1           O3   2.421       .  S
Zr1           O4   2.416       .  S
Zr1           O7   2.491       .  S
Zr1           O9   2.396       .  S
Zr1          O10   2.376       .  S
Zr1          O11   2.433       .  S
Zr1          O12   2.411       .  S
O2           H58   0.990       .  S
O2           H66   0.990       .  S
O3           C23   1.282       .  A
O4           C25   1.284       .  A
O5          Zr15   2.414       .  S
O5           C24   1.277       .  A
O6          Zr14   2.457       .  S
O6           C25   1.290       .  A
O7           C24   1.290       .  A
O8          Zr16   2.412       .  S
O8           C23   1.281       .  A
O9          Zr14   2.406       .  S
O9          Zr16   2.377       .  S
O10         Zr15   2.372       .  S
O10         Zr16   2.350       .  S
O10          H45   0.964       .  S
O11         Zr14   2.414       .  S
O11         Zr31   2.403       .  S
O11          H48   0.965       .  S
O12         Zr15   2.376       .  S
O12         Zr31   2.427       .  S
Zr13         O38   2.439       .  S
Zr13         O32   2.437       .  S
Zr13         O40   2.397       .  S
Zr13         O28   2.427       .  S
Zr13         O19   2.390       .  S
Zr13         O20   2.403       .  S
Zr13         O21   2.375       .  S
Zr13         O22   2.374       .  S
Zr14         O33   2.434       .  S
Zr14         O26   2.435       .  S
Zr14         O27   2.488       .  S
Zr14         O20   2.402       .  S
Zr14         O21   2.400       .  S
Zr15         O17   2.435       .  S
Zr15         O39   2.440       .  S
Zr15         O41   2.372       .  S
Zr15         O19   2.384       .  S
Zr15         O22   2.371       .  S
Zr16         O42   2.435       .  S
Zr16         O43   2.440       .  S
Zr16         O18   2.438       .  S
Zr16         O19   2.390       .  S
Zr16         O20   2.362       .  S
O17          H54   0.990       .  S
O18          H49   0.990       .  S
O18          H63   0.990       .  S
O20          H46   0.963       .  S
O21         Zr31   2.377       .  S
O22         Zr31   2.354       .  S
O22          H47   0.965       .  S
C23        C3241   1.468       .  S
C24        C3256   1.517       .  S
C25        C3193   1.468       .  S
O26          H62   0.990       .  S
O27          C29   1.291       .  A
O28          C29   1.279       .  A
C29        C3205   1.506       .  S
O30         Zr31   2.439       .  S
O30          H59   0.990       .  S
Zr31         O34   2.436       .  S
Zr31         O35   2.437       .  S
Zr31         O36   2.480       .  S
O32          C37   1.288       .  A
O33          H50   0.990       .  S
O33          H65   0.990       .  S
O34          H51   0.990       .  S
O35          H55   0.990       .  S
O35          H64   0.990       .  S
O36          C37   1.292       .  A
C37        C3217   1.503       .  S
O38          H57   0.988       .  S
O38          H61   0.989       .  S
O39          H53   0.990       .  S
O39          H60   0.989       .  S
O40          C44   1.278       .  A
O41          C44   1.274       .  A
O42          H52   0.990       .  S
O43          H56   0.990       .  S
C44        C3229   1.424       .  S
Zr67         O68   2.436       .  S
Zr67         O69   2.432       .  S
Zr67         O70   2.427       .  S
Zr67         O73   2.494       .  S
Zr67         O75   2.389       .  S
Zr67         O76   2.369       .  S
Zr67         O77   2.430       .  S
Zr67         O78   2.415       .  S
O68         H124   0.990       .  S
O68         H132   0.990       .  S
O69          C89   1.284       .  A
O70          C91   1.286       .  A
O71         Zr81   2.427       .  S
O71          C90   1.284       .  A
O72         Zr80   2.440       .  S
O72          C91   1.287       .  A
O73          C90   1.296       .  A
O74         Zr82   2.409       .  S
O74          C89   1.280       .  A
O75         Zr80   2.402       .  S
O75         Zr82   2.383       .  S
O76         Zr81   2.375       .  S
O76         Zr82   2.337       .  S
O76         H111   0.964       .  S
O77         Zr80   2.407       .  S
O77         Zr97   2.403       .  S
O77         H114   0.964       .  S
O78         Zr81   2.380       .  S
O78         Zr97   2.438       .  S
Zr79        O104   2.441       .  S
Zr79         O98   2.429       .  S
Zr79        O106   2.409       .  S
Zr79         O94   2.440       .  S
Zr79         O85   2.413       .  S
Zr79         O86   2.392       .  S
Zr79         O87   2.375       .  S
Zr79         O88   2.381       .  S
Zr80         O99   2.434       .  S
Zr80         O92   2.434       .  S
Zr80         O93   2.462       .  S
Zr80         O86   2.393       .  S
Zr80         O87   2.403       .  S
Zr81         O83   2.433       .  S
Zr81        O105   2.438       .  S
Zr81        O107   2.379       .  S
Zr81         O85   2.407       .  S
Zr81         O88   2.392       .  S
Zr82        O108   2.436       .  S
Zr82        O109   2.436       .  S
Zr82         O84   2.437       .  S
Zr82         O85   2.394       .  S
Zr82         O86   2.343       .  S
O83         H120   0.990       .  S
O84         H115   0.990       .  S
O84         H129   0.990       .  S
O86         H112   0.959       .  S
O87         Zr97   2.390       .  S
O88         Zr97   2.343       .  S
O88         H113   0.963       .  S
C89        C3169   1.468       .  S
C90        C3181   1.500       .  S
C91        C3133   1.479       .  S
O92         H128   0.990       .  S
O93          C95   1.290       .  A
O94          C95   1.286       .  A
C95        C3148   1.473       .  S
O96         Zr97   2.439       .  S
O96         H125   0.990       .  S
Zr97        O100   2.436       .  S
Zr97        O101   2.437       .  S
Zr97        O102   2.488       .  S
O98         C103   1.283       .  A
O99         H116   0.990       .  S
O99         H131   0.990       .  S
O100        H117   0.990       .  S
O101        H121   0.990       .  S
O101        H130   0.990       .  S
O102        C103   1.293       .  A
C103       C3157   1.506       .  S
O104        H123   0.988       .  S
O104        H127   0.991       .  S
O105        H119   0.990       .  S
O105        H126   0.990       .  S
O106        C110   1.281       .  A
O107        C110   1.268       .  A
O108        H118   0.990       .  S
O109        H122   0.990       .  S
C110       C3232   1.427       .  S
Zr133       O134   2.436       .  S
Zr133       O135   2.433       .  S
Zr133       O136   2.428       .  S
Zr133       O139   2.480       .  S
Zr133       O141   2.390       .  S
Zr133       O142   2.374       .  S
Zr133       O143   2.427       .  S
Zr133       O144   2.414       .  S
O134        H190   0.990       .  S
O134        H198   0.990       .  S
O135        C155   1.284       .  A
O136        C157   1.284       .  A
O137       Zr147   2.442       .  S
O137        C156   1.287       .  A
O138       Zr146   2.425       .  S
O138        C157   1.285       .  A
O139        C156   1.293       .  A
O140       Zr148   2.425       .  S
O140        C155   1.283       .  A
O141       Zr146   2.394       .  S
O141       Zr148   2.375       .  S
O142       Zr147   2.383       .  S
O142       Zr148   2.335       .  S
O142        H177   0.963       .  S
O143       Zr146   2.401       .  S
O143       Zr163   2.406       .  S
O143        H180   0.965       .  S
O144       Zr147   2.386       .  S
O144       Zr163   2.435       .  S
Zr145       O170   2.441       .  S
Zr145       O164   2.446       .  S
Zr145       O172   2.418       .  S
Zr145       O160   2.454       .  S
Zr145       O151   2.424       .  S
Zr145       O152   2.404       .  S
Zr145       O153   2.380       .  S
Zr145       O154   2.393       .  S
Zr146       O165   2.433       .  S
Zr146       O158   2.434       .  S
Zr146       O159   2.442       .  S
Zr146       O152   2.396       .  S
Zr146       O153   2.399       .  S
Zr147       O149   2.433       .  S
Zr147       O171   2.438       .  S
Zr147       O173   2.409       .  S
Zr147       O151   2.410       .  S
Zr147       O154   2.395       .  S
Zr148       O174   2.437       .  S
Zr148       O175   2.435       .  S
Zr148       O150   2.437       .  S
Zr148       O151   2.399       .  S
Zr148       O152   2.352       .  S
O149        H186   0.990       .  S
O150        H181   0.990       .  S
O150        H195   0.990       .  S
O152        H178   0.961       .  S
O153       Zr163   2.393       .  S
O154       Zr163   2.351       .  S
O154        H179   0.963       .  S
C155       C3109   1.476       .  S
C156       C3124   1.494       .  S
C157       C3085   1.490       .  S
O158        H194   0.990       .  S
O159        C161   1.285       .  A
O160        C161   1.288       .  A
C161       C3145   1.472       .  S
O162       Zr163   2.439       .  S
O162        H191   0.990       .  S
Zr163       O166   2.436       .  S
Zr163       O167   2.438       .  S
Zr163       O168   2.479       .  S
O164        C169   1.286       .  A
O165        H182   0.990       .  S
O165        H197   0.990       .  S
O166        H183   0.990       .  S
O167        H187   0.990       .  S
O167        H196   0.990       .  S
O168        C169   1.291       .  A
C169       C3253   1.509       .  S
O170        H189   0.989       .  S
O170        H193   0.991       .  S
O171        H185   0.990       .  S
O171        H192   0.990       .  S
O172        C176   1.280       .  A
O173        C176   1.269       .  A
O174        H184   0.990       .  S
O175        H188   0.990       .  S
C176       C3097   1.447       .  S
Zr199       O200   2.436       .  S
Zr199       O201   2.436       .  S
Zr199       O202   2.438       .  S
Zr199       O205   2.476       .  S
Zr199       O207   2.394       .  S
Zr199       O208   2.377       .  S
Zr199       O209   2.425       .  S
Zr199       O210   2.418       .  S
O200        H256   0.990       .  S
O200        H264   0.990       .  S
O201        C221   1.284       .  A
O202        C223   1.287       .  A
O203       Zr213   2.427       .  S
O203        C222   1.284       .  A
O204       Zr212   2.414       .  S
O204        C223   1.282       .  A
O205        C222   1.290       .  A
O206       Zr214   2.402       .  S
O206        C221   1.278       .  A
O207       Zr212   2.402       .  S
O207       Zr214   2.372       .  S
O208       Zr213   2.381       .  S
O208       Zr214   2.359       .  S
O208        H243   0.964       .  S
O209       Zr212   2.408       .  S
O209       Zr229   2.404       .  S
O209        H246   0.965       .  S
O210       Zr213   2.388       .  S
O210       Zr229   2.422       .  S
Zr211       O236   2.441       .  S
Zr211       O230   2.450       .  S
Zr211       O238   2.403       .  S
Zr211       O226   2.442       .  S
Zr211       O217   2.427       .  S
Zr211       O218   2.407       .  S
Zr211       O219   2.376       .  S
Zr211       O220   2.405       .  S
Zr212       O231   2.433       .  S
Zr212       O224   2.434       .  S
Zr212       O225   2.440       .  S
Zr212       O218   2.403       .  S
Zr212       O219   2.399       .  S
Zr213       O215   2.436       .  S
Zr213       O237   2.439       .  S
Zr213       O239   2.413       .  S
Zr213       O217   2.383       .  S
Zr213       O220   2.394       .  S
Zr214       O240   2.436       .  S
Zr214       O241   2.436       .  S
Zr214       O216   2.436       .  S
Zr214       O217   2.366       .  S
Zr214       O218   2.364       .  S
O215        H252   0.990       .  S
O216        H247   0.990       .  S
O216        H261   0.990       .  S
O218        H244   0.961       .  S
O219       Zr229   2.394       .  S
O220       Zr229   2.369       .  S
O220        H245   0.966       .  S
C221       C3073   1.464       .  S
C222       C3160   1.502       .  S
C223       C3037   1.476       .  S
O224        H260   0.990       .  S
O225        C227   1.283       .  A
O226        C227   1.282       .  A
C227       C3049   1.473       .  S
O228       Zr229   2.440       .  S
O228        H257   0.990       .  S
Zr229       O232   2.437       .  S
Zr229       O233   2.439       .  S
Zr229       O234   2.457       .  S
O230        C235   1.286       .  A
O231        H248   0.990       .  S
O231        H263   0.989       .  S
O232        H249   0.990       .  S
O233        H253   0.990       .  S
O233        H262   0.990       .  S
O234        C235   1.287       .  A
C235       C3061   1.518       .  S
O236        H255   0.990       .  S
O236        H259   0.990       .  S
O237        H251   0.990       .  S
O237        H258   0.990       .  S
O238        C242   1.267       .  A
O239        C242   1.271       .  A
O240        H250   0.990       .  S
O241        H254   0.990       .  S
C242       C3100   1.444       .  S
Zr265       O266   2.435       .  S
Zr265       O267   2.435       .  S
Zr265       O268   2.448       .  S
Zr265       O271   2.501       .  S
Zr265       O273   2.387       .  S
Zr265       O274   2.375       .  S
Zr265       O275   2.429       .  S
Zr265       O276   2.417       .  S
O266        H322   0.990       .  S
O266        H330   0.990       .  S
O267        C287   1.284       .  A
O268        C289   1.291       .  A
O269       Zr279   2.424       .  S
O269        C288   1.282       .  A
O270       Zr278   2.433       .  S
O270        C289   1.284       .  A
O271        C288   1.298       .  A
O272       Zr280   2.423       .  S
O272        C287   1.282       .  A
O273       Zr278   2.399       .  S
O273       Zr280   2.378       .  S
O274       Zr279   2.384       .  S
O274       Zr280   2.337       .  S
O274        H309   0.963       .  S
O275       Zr278   2.407       .  S
O275       Zr295   2.395       .  S
O275        H312   0.964       .  S
O276       Zr279   2.384       .  S
O276       Zr295   2.433       .  S
Zr277       O302   2.444   1_556  S
Zr277       O296   2.427       .  S
Zr277       O304   2.409       .  S
Zr277       O292   2.450   1_556  S
Zr277       O283   2.414       .  S
Zr277       O284   2.401       .  S
Zr277       O285   2.380       .  S
Zr277       O286   2.386       .  S
Zr278       O297   2.434       .  S
Zr278       O290   2.435       .  S
Zr278       O291   2.454   1_556  S
Zr278       O284   2.396       .  S
Zr278       O285   2.402       .  S
Zr279       O281   2.434       .  S
Zr279       O303   2.438       .  S
Zr279       O305   2.392       .  S
Zr279       O283   2.403       .  S
Zr279       O286   2.393       .  S
Zr280       O306   2.437       .  S
Zr280       O307   2.436       .  S
Zr280       O282   2.438       .  S
Zr280       O283   2.400       .  S
Zr280       O284   2.349       .  S
O281        H318   0.990       .  S
O282        H313   0.990       .  S
O282        H327   0.990       .  S
O284        H310   0.959       .  S
O285       Zr295   2.393       .  S
O286       Zr295   2.345       .  S
O286        H311   0.964       .  S
C287       C3016   1.473       .  S
C288       C3025   1.493       .  S
C289       C2989   1.498       .  S
O290        H326   0.990       .  S
O291        C293   1.288       .  A
O292        C293   1.286       .  A
C293       C3052   1.473       .  S
O294       Zr295   2.439       .  S
O294        H323   0.990       .  S
Zr295       O298   2.436       .  S
Zr295       O299   2.438       .  S
Zr295       O300   2.473       .  S
O296        C301   1.282       .  A
O297        H314   0.990       .  S
O297        H329   0.990       .  S
O298        H315   0.990       .  S
O299        H319   0.990       .  S
O299        H328   0.990       .  S
O300        C301   1.289       .  A
C301       C3121   1.495   1_556  S
O302        H321   0.991       .  S
O302        H325   0.990       .  S
O303        H317   0.990       .  S
O303        H324   0.990       .  S
O304        C308   1.279       .  A
O305        C308   1.268       .  A
O306        H316   0.990       .  S
O307        H320   0.990       .  S
C308       C3001   1.433       .  S
Zr331       O332   2.435       .  S
Zr331       O333   2.418       .  S
Zr331       O334   2.444       .  S
Zr331       O337   2.499       .  S
Zr331       O339   2.395       .  S
Zr331       O340   2.383       .  S
Zr331       O341   2.426       .  S
Zr331       O342   2.408       .  S
O332        H388   0.990       .  S
O332        H396   0.990       .  S
O333        C353   1.282       .  A
O334        C355   1.289       .  A
O335       Zr345   2.414       .  S
O335        C354   1.277       .  A
O336       Zr344   2.433   1_554  S
O336        C355   1.286       .  A
O337        C354   1.293       .  A
O338       Zr346   2.424       .  S
O338        C353   1.283       .  A
O339       Zr344   2.397   1_554  S
O339       Zr346   2.372       .  S
O340       Zr345   2.378       .  S
O340       Zr346   2.355       .  S
O340        H375   0.965       .  S
O341       Zr344   2.414   1_554  S
O341       Zr361   2.391       .  S
O341        H378   0.965       .  S
O342       Zr345   2.392       .  S
O342       Zr361   2.419       .  S
Zr343       O368   2.439       .  S
Zr343       O362   2.438       .  S
Zr343       O370   2.397       .  S
Zr343       O358   2.421       .  S
Zr343       O349   2.409       .  S
Zr343       O350   2.407       .  S
Zr343       O351   2.376       .  S
Zr343       O352   2.380       .  S
Zr344       O363   2.434       .  S
Zr344       O356   2.434       .  S
Zr344       O357   2.458       .  S
Zr344       O350   2.410       .  S
Zr344       O351   2.401       .  S
Zr345       O347   2.438       .  S
Zr345       O369   2.441       .  S
Zr345       O371   2.394   1_554  S
Zr345       O349   2.386   1_554  S
Zr345       O352   2.387   1_554  S
Zr346       O372   2.436       .  S
Zr346       O373   2.437   1_554  S
Zr346       O348   2.441   1_554  S
Zr346       O349   2.402   1_554  S
Zr346       O350   2.367   1_554  S
O347        H384   0.990       .  S
O348        H379   0.990       .  S
O348        H393   0.990       .  S
O350        H376   0.963       .  S
O351       Zr361   2.380   1_556  S
O352       Zr361   2.349   1_556  S
O352        H377   0.964       .  S
C353       C2980   1.466       .  S
C354       C3064   1.509       .  S
C355       C2941   1.470       .  S
O356        H392   0.990       .  S
O357        C359   1.285       .  A
O358        C359   1.276       .  A
C359       C2953   1.490       .  S
O360       Zr361   2.438       .  S
O360        H389   0.990       .  S
Zr361       O364   2.436       .  S
Zr361       O365   2.438       .  S
Zr361       O366   2.462   1_554  S
O362        C367   1.286       .  A
O363        H380   0.990       .  S
O363        H395   0.990       .  S
O364        H381   0.990   1_554  S
O365        H385   0.990       .  S
O365        H394   0.990       .  S
O366        C367   1.288       .  A
C367       C2965   1.486       .  S
O368        H387   0.990       .  S
O368        H391   0.990       .  S
O369        H383   0.990       .  S
O369        H390   0.989       .  S
O370        C374   1.275       .  A
O371        C374   1.273       .  A
O372        H382   0.990       .  S
O373        H386   0.990       .  S
C374       C3004   1.432       .  S
Zr397       O398   2.436       .  S
Zr397       O399   2.432       .  S
Zr397       O400   2.434       .  S
Zr397       O403   2.489       .  S
Zr397       O405   2.390       .  S
Zr397       O406   2.376       .  S
Zr397       O407   2.427       .  S
Zr397       O408   2.409       .  S
O398        H454   0.990       .  S
O398        H462   0.990       .  S
O399        C419   1.284       .  A
O400        C421   1.285       .  A
O401       Zr411   2.411       .  S
O401        C420   1.281       .  A
O402       Zr410   2.457       .  S
O402        C421   1.291       .  A
O403        C420   1.295       .  A
O404       Zr412   2.419       .  S
O404        C419   1.281       .  A
O405       Zr410   2.400       .  S
O405       Zr412   2.379       .  S
O406       Zr411   2.380       .  S
O406       Zr412   2.344       .  S
O406        H441   0.964       .  S
O407       Zr410   2.408       .  S
O407       Zr427   2.395       .  S
O407        H444   0.965       .  S
O408       Zr411   2.391       .  S
O408       Zr427   2.429       .  S
Zr409       O434   2.435       .  S
Zr409       O428   2.437       .  S
Zr409       O436   2.415       .  S
Zr409       O424   2.435       .  S
Zr409       O415   2.404       .  S
Zr409       O416   2.400       .  S
Zr409       O417   2.381       .  S
Zr409       O418   2.370       .  S
Zr410       O429   2.434       .  S
Zr410       O422   2.435       .  S
Zr410       O423   2.468       .  S
Zr410       O416   2.409       .  S
Zr410       O417   2.402       .  S
Zr411       O413   2.434       .  S
Zr411       O435   2.436       .  S
Zr411       O437   2.410       .  S
Zr411       O415   2.385       .  S
Zr411       O418   2.365       .  S
Zr412       O438   2.436       .  S
Zr412       O439   2.437       .  S
Zr412       O414   2.437       .  S
Zr412       O415   2.405       .  S
Zr412       O416   2.359       .  S
O413        H450   0.990       .  S
O414        H445   0.990       .  S
O414        H459   0.990       .  S
O416        H442   0.963       .  S
O417       Zr427   2.383       .  S
O418       Zr427   2.339       .  S
O418        H443   0.963       .  S
C419       C2929   1.469       .  S
C420       C2968   1.489       .  S
C421       C2905   1.501       .  S
O422        H458   0.990       .  S
O423        C425   1.290       .  A
O424        C425   1.283       .  A
C425       C3208   1.503       .  S
O426       Zr427   2.439       .  S
O426        H455   0.990       .  S
Zr427       O430   2.436       .  S
Zr427       O431   2.438       .  S
Zr427       O432   2.481       .  S
O428        C433   1.287       .  A
O429        H446   0.990       .  S
O429        H461   0.990       .  S
O430        H447   0.990       .  S
O431        H451   0.990       .  S
O431        H460   0.990       .  S
O432        C433   1.292       .  A
C433       C3184   1.497       .  S
O434        H453   0.990       .  S
O434        H457   0.989       .  S
O435        H449   0.990       .  S
O435        H456   0.990       .  S
O436        C440   1.281       .  A
O437        C440   1.285       .  A
O438        H448   0.990       .  S
O439        H452   0.990       .  S
C440       C2920   1.473       .  S
Zr463       O464   2.436       .  S
Zr463       O465   2.421       .  S
Zr463       O466   2.432       .  S
Zr463       O469   2.487       .  S
Zr463       O471   2.391       .  S
Zr463       O472   2.376       .  S
Zr463       O473   2.423       .  S
Zr463       O474   2.409       .  S
O464        H520   0.990       .  S
O464        H528   0.990       .  S
O465        C485   1.282       .  A
O466        C487   1.288       .  A
O467       Zr477   2.414       .  S
O467        C486   1.281       .  A
O468       Zr476   2.450       .  S
O468        C487   1.288       .  A
O469        C486   1.293       .  A
O470       Zr478   2.420       .  S
O470        C485   1.282       .  A
O471       Zr476   2.407       .  S
O471       Zr478   2.380       .  S
O472       Zr477   2.378       .  S
O472       Zr478   2.341       .  S
O472        H507   0.965       .  S
O473       Zr476   2.409       .  S
O473       Zr493   2.389       .  S
O473        H510   0.964       .  S
O474       Zr477   2.389       .  S
O474       Zr493   2.427       .  S
Zr475       O500   2.438       .  S
Zr475       O494   2.449       .  S
Zr475       O502   2.408       .  S
Zr475       O490   2.448       .  S
Zr475       O481   2.427       .  S
Zr475       O482   2.404       .  S
Zr475       O483   2.382       .  S
Zr475       O484   2.394       .  S
Zr476       O495   2.434       .  S
Zr476       O488   2.435       .  S
Zr476       O489   2.465       .  S
Zr476       O482   2.403       .  S
Zr476       O483   2.405       .  S
Zr477       O479   2.435       .  S
Zr477       O501   2.443       .  S
Zr477       O503   2.402       .  S
Zr477       O481   2.394       .  S
Zr477       O484   2.381       .  S
Zr478       O504   2.435       .  S
Zr478       O505   2.436       .  S
Zr478       O480   2.437       .  S
Zr478       O481   2.405       .  S
Zr478       O482   2.350       .  S
O479        H516   0.990       .  S
O480        H511   0.990       .  S
O480        H525   0.990       .  S
O482        H508   0.960       .  S
O483       Zr493   2.393       .  S
O484       Zr493   2.349       .  S
O484        H509   0.965       .  S
C485       C2893   1.470       .  S
C486       C3220   1.501       .  S
C487       C2884   1.485       .  S
O488        H524   0.990       .  S
O489        C491   1.291       .  A
O490        C491   1.289       .  A
C491       C2956   1.485       .  S
O492       Zr493   2.439       .  S
O492        H521   0.990       .  S
Zr493       O496   2.436       .  S
Zr493       O497   2.438       .  S
Zr493       O498   2.460       .  S
O494        C499   1.288       .  A
O495        H512   0.990       .  S
O495        H527   0.990       .  S
O496        H513   0.990       .  S
O497        H517   0.990       .  S
O497        H526   0.990       .  S
O498        C499   1.287       .  A
C499       C3028   1.492       .  S
O500        H519   0.990       .  S
O500        H523   0.990       .  S
O501        H515   0.990       .  S
O501        H522   0.990       .  S
O502        C506   1.271       .  A
O503        C506   1.274       .  A
O504        H514   0.990       .  S
O505        H518   0.990       .  S
C506       C2917   1.465       .  S
Zr529       O530   2.440       .  S
Zr529       O531   2.435       .  S
Zr529       O532   2.428       .  S
Zr529       O535   2.442       .  S
Zr529       O537   2.367       .  S
Zr529       O538   2.387       .  S
Zr529       O539   2.416       .  S
Zr529       O540   2.385       .  S
O530        H586   0.990       .  S
O530        H594   0.990       .  S
O531        C551   1.284       .  A
O532        C553   1.284       .  A
O533       Zr543   2.442       .  S
O533        C552   1.285       .  A
O534       Zr542   2.399       .  S
O534        C553   1.273       .  A
O535        C552   1.286       .  A
O536       Zr544   2.462       .  S
O536        C551   1.288       .  A
O537       Zr542   2.381       .  S
O537       Zr544   2.353       .  S
O538       Zr543   2.404       .  S
O538       Zr544   2.390       .  S
O538        H573   0.966       .  S
O539       Zr542   2.403       .  S
O539       Zr559   2.420       .  S
O539        H576   0.966       .  S
O540       Zr543   2.374       .  S
O540       Zr559   2.371       .  S
Zr541       O566   2.438       .  S
Zr541       O560   2.434       .  S
Zr541       O568   2.418       .  S
Zr541       O556   2.476       .  S
Zr541       O547   2.418       .  S
Zr541       O548   2.409       .  S
Zr541       O549   2.361       .  S
Zr541       O550   2.388       .  S
Zr542       O561   2.440       .  S
Zr542       O554   2.433       .  S
Zr542       O555   2.415       .  S
Zr542       O548   2.390       .  S
Zr542       O549   2.375       .  S
Zr543       O545   2.435       .  S
Zr543       O567   2.438       .  S
Zr543       O569   2.431       .  S
Zr543       O547   2.392       .  S
Zr543       O550   2.384       .  S
Zr544       O570   2.435       .  S
Zr544       O571   2.434       .  S
Zr544       O546   2.435       .  S
Zr544       O547   2.400       .  S
Zr544       O548   2.428       .  S
O545        H582   0.990       .  S
O546        H577   0.990       .  S
O546        H591   0.990       .  S
O548        H574   0.966       .  S
O549       Zr559   2.361       .  S
O550       Zr559   2.382       .  S
O550        H575   0.965       .  S
C551       C2833   1.492       .  S
C552       C2824   1.468       .  S
C553       C2848   1.475       .  S
O554        H590   0.990       .  S
O555        C557   1.282       .  A
O556        C557   1.292       .  A
C557       C2869   1.489       .  S
O558       Zr559   2.439       .  S
O558        H587   0.990       .  S
Zr559       O562   2.437       .  S
Zr559       O563   2.439       .  S
Zr559       O564   2.436       .  S
O560        C565   1.284       .  A
O561        H578   0.990       .  S
O561        H593   0.990       .  S
O562        H579   0.990       .  S
O563        H583   0.990       .  S
O563        H592   0.990       .  S
O564        C565   1.284       .  A
C565       C2860   1.469       .  S
O566        H585   0.990       .  S
O566        H589   0.990       .  S
O567        H581   0.990       .  S
O567        H588   0.989       .  S
O568        C572   1.284       .  A
O569        C572   1.284       .  A
O570        H580   0.990       .  S
O571        H584   0.990       .  S
C572       C2977   1.481       .  S
Zr595       O596   2.440       .  S
Zr595       O597   2.442       .  S
Zr595       O598   2.426       .  S
Zr595       O601   2.438       .  S
Zr595       O603   2.367       .  S
Zr595       O604   2.384       .  S
Zr595       O605   2.417       .  S
Zr595       O606   2.382       .  S
O596        H652   0.990       .  S
O596        H660   0.991       .  S
O597        C617   1.285       .  A
O598        C619   1.284       .  A
O599       Zr609   2.457       .  S
O599        C618   1.288       .  A
O600       Zr608   2.397       .  S
O600        C619   1.273       .  A
O601        C618   1.287       .  A
O602       Zr610   2.454       .  S
O602        C617   1.286       .  A
O603       Zr608   2.382       .  S
O603       Zr610   2.359       .  S
O604       Zr609   2.404       .  S
O604       Zr610   2.392       .  S
O604        H639   0.966       .  S
O605       Zr608   2.398       .  S
O605       Zr625   2.424       .  S
O605        H642   0.966       .  S
O606       Zr609   2.364       .  S
O606       Zr625   2.368       .  S
Zr607       O632   2.438       .  S
Zr607       O626   2.429       .  S
Zr607       O634   2.425       .  S
Zr607       O622   2.489       .  S
Zr607       O613   2.414       .  S
Zr607       O614   2.412       .  S
Zr607       O615   2.358       .  S
Zr607       O616   2.393       .  S
Zr608       O627   2.441       .  S
Zr608       O620   2.434       .  S
Zr608       O621   2.400       .  S
Zr608       O614   2.390       .  S
Zr608       O615   2.376       .  S
Zr609       O611   2.435       .  S
Zr609       O633   2.438       .  S
Zr609       O635   2.427       .  S
Zr609       O613   2.393       .  S
Zr609       O616   2.397       .  S
Zr610       O636   2.435       .  S
Zr610       O637   2.435       .  S
Zr610       O612   2.436       .  S
Zr610       O613   2.393       .  S
Zr610       O614   2.427       .  S
O611        H648   0.990       .  S
O612        H643   0.990       .  S
O612        H657   0.990       .  S
O614        H640   0.966       .  S
O615       Zr625   2.354       .  S
O616       Zr625   2.383       .  S
O616        H641   0.966       .  S
C617       C2785   1.489       .  S
C618       C2773   1.478       .  S
C619       C2845   1.473       .  S
O620        H656   0.990       .  S
O621        C623   1.280       .  A
O622        C623   1.295       .  A
C623       C2812   1.492       .  S
O624       Zr625   2.439       .  S
O624        H653   0.990       .  S
Zr625       O628   2.436       .  S
Zr625       O629   2.440       .  S
Zr625       O630   2.441       .  S
O626        C631   1.283       .  A
O627        H644   0.990       .  S
O627        H659   0.989       .  S
O628        H645   0.990       .  S
O629        H649   0.990       .  S
O629        H658   0.990       .  S
O630        C631   1.287       .  A
C631       C2797   1.487       .  S
O632        H651   0.990       .  S
O632        H655   0.990       .  S
O633        H647   0.990       .  S
O633        H654   0.990       .  S
O634        C638   1.285       .  A
O635        C638   1.283       .  A
O636        H646   0.990       .  S
O637        H650   0.990       .  S
C638       C3244   1.459       .  S
Zr661       O662   2.441       .  S
Zr661       O663   2.423       .  S
Zr661       O664   2.409       .  S
Zr661       O667   2.419       .  S
Zr661       O669   2.381       .  S
Zr661       O670   2.379       .  S
Zr661       O671   2.427       .  S
Zr661       O672   2.391       .  S
O662        H718   0.990       .  S
O662        H726   0.991       .  S
O663        C683   1.282   1_545  A
O664        C685   1.276       .  A
O665       Zr675   2.454       .  S
O665        C684   1.287       .  A
O666       Zr674   2.388       .  S
O666        C685   1.264       .  A
O667        C684   1.282       .  A
O668       Zr676   2.461   1_565  S
O668        C683   1.287       .  A
O669       Zr674   2.396       .  S
O669       Zr676   2.355       .  S
O670       Zr675   2.401       .  S
O670       Zr676   2.390       .  S
O670        H705   0.966       .  S
O671       Zr674   2.410       .  S
O671       Zr691   2.402       .  S
O671        H708   0.963       .  S
O672       Zr675   2.372       .  S
O672       Zr691   2.375       .  S
Zr673       O698   2.439       .  S
Zr673       O692   2.423       .  S
Zr673       O700   2.439       .  S
Zr673       O688   2.491       .  S
Zr673       O679   2.412       .  S
Zr673       O680   2.409       .  S
Zr673       O681   2.366       .  S
Zr673       O682   2.396       .  S
Zr674       O693   2.444       .  S
Zr674       O686   2.434       .  S
Zr674       O687   2.403       .  S
Zr674       O680   2.392       .  S
Zr674       O681   2.375       .  S
Zr675       O677   2.435       .  S
Zr675       O699   2.437       .  S
Zr675       O701   2.423       .  S
Zr675       O679   2.397       .  S
Zr675       O682   2.391       .  S
Zr676       O702   2.435       .  S
Zr676       O703   2.434       .  S
Zr676       O678   2.436   1_545  S
Zr676       O679   2.396       .  S
Zr676       O680   2.430       .  S
O677        H714   0.990       .  S
O678        H709   0.990       .  S
O678        H723   0.990       .  S
O680        H706   0.966       .  S
O681       Zr691   2.370       .  S
O682       Zr691   2.380       .  S
O682        H707   0.966       .  S
C683       C2749   1.489       .  S
C684       C2737   1.472       .  S
C685       C2761   1.455       .  S
O686        H722   0.990       .  S
O687        C689   1.278       .  A
O688        C689   1.293       .  A
C689       C2836   1.502       .  S
O690       Zr691   2.440       .  S
O690        H719   0.990       .  S
Zr691       O694   2.437       .  S
Zr691       O695   2.439       .  S
Zr691       O696   2.420       .  S
O692        C697   1.283       .  A
O693        H710   0.989       .  S
O693        H725   0.988       .  S
O694        H711   0.990       .  S
O695        H715   0.990       .  S
O695        H724   0.990       .  S
O696        C697   1.281       .  A
C697       C3040   1.461       .  S
O698        H717   0.990       .  S
O698        H721   0.990       .  S
O699        H713   0.990       .  S
O699        H720   0.990       .  S
O700        C704   1.287       .  A
O701        C704   1.283       .  A
O702        H712   0.990   1_545  S
O703        H716   0.990       .  S
C704       C2725   1.466       .  S
Zr727       O728   2.444       .  S
Zr727       O729   2.440       .  S
Zr727       O730   2.412       .  S
Zr727       O733   2.438       .  S
Zr727       O735   2.383       .  S
Zr727       O736   2.383       .  S
Zr727       O737   2.425       .  S
Zr727       O738   2.392       .  S
O728        H784   0.990       .  S
O728        H792   0.991       .  S
O729        C749   1.284   1_545  A
O730        C751   1.275       .  A
O731       Zr741   2.451       .  S
O731        C750   1.285       .  A
O732       Zr740   2.402       .  S
O732        C751   1.277       .  A
O733        C750   1.279       .  A
O734       Zr742   2.448   1_565  S
O734        C749   1.284       .  A
O735       Zr740   2.385       .  S
O735       Zr742   2.374       .  S
O736       Zr741   2.406       .  S
O736       Zr742   2.389       .  S
O736        H771   0.966       .  S
O737       Zr740   2.407       .  S
O737       Zr757   2.392       .  S
O737        H774   0.961       .  S
O738       Zr741   2.371       .  S
O738       Zr757   2.364       .  S
Zr739       O764   2.438       .  S
Zr739       O758   2.448       .  S
Zr739       O766   2.431       .  S
Zr739       O754   2.480       .  S
Zr739       O745   2.415       .  S
Zr739       O746   2.418       .  S
Zr739       O747   2.363       .  S
Zr739       O748   2.394       .  S
Zr740       O759   2.444       .  S
Zr740       O752   2.433       .  S
Zr740       O753   2.422       .  S
Zr740       O746   2.384       .  S
Zr740       O747   2.379       .  S
Zr741       O743   2.436       .  S
Zr741       O765   2.438       .  S
Zr741       O767   2.423       .  S
Zr741       O745   2.396       .  S
Zr741       O748   2.398       .  S
Zr742       O768   2.435       .  S
Zr742       O769   2.434       .  S
Zr742       O744   2.438   1_545  S
Zr742       O745   2.399       .  S
Zr742       O746   2.426       .  S
O743        H780   0.990       .  S
O744        H775   0.990       .  S
O744        H789   0.990       .  S
O746        H772   0.966       .  S
O747       Zr757   2.357       .  S
O748       Zr757   2.378       .  S
O748        H773   0.966       .  S
C749       C2809   1.486       .  S
C750       C2821   1.469       .  S
C751       C2764   1.442       .  S
O752        H788   0.990       .  S
O753        C755   1.282       .  A
O754        C755   1.292       .  A
C755       C2713   1.493       .  S
O756       Zr757   2.439       .  S
O756        H785   0.990       .  S
Zr757       O760   2.436       .  S
Zr757       O761   2.439       .  S
Zr757       O762   2.414       .  S
O758        C763   1.288       .  A
O759        H776   0.990       .  S
O759        H791   0.990       .  S
O760        H777   0.990       .  S
O761        H781   0.990       .  S
O761        H790   0.990       .  S
O762        C763   1.278       .  A
C763       C2881   1.500       .  S
O764        H783   0.989       .  S
O764        H787   0.990       .  S
O765        H779   0.990       .  S
O765        H786   0.990       .  S
O766        C770   1.286       .  A
O767        C770   1.282       .  A
O768        H778   0.990   1_545  S
O769        H782   0.990       .  S
C770       C2701   1.465       .  S
Zr793       O794   2.439       .  S
Zr793       O795   2.420       .  S
Zr793       O796   2.393       .  S
Zr793       O799   2.419       .  S
Zr793       O801   2.375   1_556  S
Zr793       O802   2.379       .  S
Zr793       O803   2.402       .  S
Zr793       O804   2.393       .  S
O794        H850   0.987       .  S
O794        H858   0.990       .  S
O795        C815   1.284       .  A
O796        C817   1.275       .  A
O797       Zr807   2.466       .  S
O797        C816   1.286       .  A
O798       Zr806   2.407       .  S
O798        C817   1.279   1_554  A
O799        C816   1.277       .  A
O800       Zr808   2.469   1_556  S
O800        C815   1.290       .  A
O801       Zr806   2.366       .  S
O801       Zr808   2.363       .  S
O802       Zr807   2.389       .  S
O802       Zr808   2.374   1_556  S
O802        H837   0.966       .  S
O803       Zr806   2.388   1_556  S
O803       Zr823   2.397   1_556  S
O803        H840   0.963       .  S
O804       Zr807   2.376       .  S
O804       Zr823   2.382   1_556  S
Zr805       O830   2.437       .  S
Zr805       O824   2.423       .  S
Zr805       O832   2.429       .  S
Zr805       O820   2.498       .  S
Zr805       O811   2.418       .  S
Zr805       O812   2.414       .  S
Zr805       O813   2.358       .  S
Zr805       O814   2.397       .  S
Zr806       O825   2.442       .  S
Zr806       O818   2.433       .  S
Zr806       O819   2.400       .  S
Zr806       O812   2.384       .  S
Zr806       O813   2.383       .  S
Zr807       O809   2.435       .  S
Zr807       O831   2.437       .  S
Zr807       O833   2.417   1_556  S
Zr807       O811   2.403   1_556  S
Zr807       O814   2.394   1_556  S
Zr808       O834   2.435       .  S
Zr808       O835   2.434       .  S
Zr808       O810   2.436       .  S
Zr808       O811   2.401       .  S
Zr808       O812   2.427       .  S
O809        H846   0.990       .  S
O810        H841   0.990   1_565  S
O810        H855   0.990       .  S
O812        H838   0.966       .  S
O813       Zr823   2.363       .  S
O814       Zr823   2.375       .  S
O814        H839   0.966       .  S
C815       C2677   1.485   1_565  S
C816       C2668   1.491       .  S
C817       C2692   1.443       .  S
O818        H854   0.990       .  S
O819        C821   1.276       .  A
O820        C821   1.296       .  A
C821       C2788   1.486       .  S
O822       Zr823   2.440   1_556  S
O822        H851   0.990       .  S
Zr823       O826   2.437       .  S
Zr823       O827   2.439   1_554  S
Zr823       O828   2.428       .  S
O824        C829   1.282       .  A
O825        H842   0.990       .  S
O825        H857   0.990       .  S
O826        H843   0.990       .  S
O827        H847   0.990       .  S
O827        H856   0.990       .  S
O828        C829   1.284       .  A
C829       C3088   1.478       .  S
O830        H849   0.990       .  S
O830        H853   0.990       .  S
O831        H845   0.990       .  S
O831        H852   0.990       .  S
O832        C836   1.285       .  A
O833        C836   1.282       .  A
O834        H844   0.990       .  S
O835        H848   0.990       .  S
C836       C2653   1.459       .  S
Zr859       O860   2.448   1_556  S
Zr859       O861   2.416       .  S
Zr859       O862   2.386       .  S
Zr859       O865   2.411   1_556  S
Zr859       O867   2.372       .  S
Zr859       O868   2.372       .  S
Zr859       O869   2.417       .  S
Zr859       O870   2.391       .  S
O860        H916   0.990       .  S
O860        H924   0.990       .  S
O861        C881   1.282       .  A
O862        C883   1.276       .  A
O863       Zr873   2.453   1_554  S
O863        C882   1.286       .  A
O864       Zr872   2.420       .  S
O864        C883   1.274       .  A
O865        C882   1.279       .  A
O866       Zr874   2.469       .  S
O866        C881   1.290       .  A
O867       Zr872   2.380       .  S
O867       Zr874   2.346       .  S
O868       Zr873   2.393       .  S
O868       Zr874   2.385       .  S
O868        H903   0.966       .  S
O869       Zr872   2.403       .  S
O869       Zr889   2.409       .  S
O869        H906   0.963       .  S
O870       Zr873   2.374       .  S
O870       Zr889   2.387       .  S
Zr871       O896   2.439       .  S
Zr871       O890   2.436       .  S
Zr871       O898   2.440       .  S
Zr871       O886   2.483       .  S
Zr871       O877   2.410       .  S
Zr871       O878   2.416       .  S
Zr871       O879   2.365       .  S
Zr871       O880   2.394       .  S
Zr872       O891   2.443       .  S
Zr872       O884   2.434       .  S
Zr872       O885   2.412       .  S
Zr872       O878   2.395       .  S
Zr872       O879   2.384       .  S
Zr873       O875   2.435       .  S
Zr873       O897   2.438       .  S
Zr873       O899   2.410       .  S
Zr873       O877   2.397       .  S
Zr873       O880   2.392       .  S
Zr874       O900   2.435       .  S
Zr874       O901   2.434       .  S
Zr874       O876   2.435       .  S
Zr874       O877   2.395       .  S
Zr874       O878   2.430       .  S
O875        H912   0.990       .  S
O876        H907   0.990   1_565  S
O876        H921   0.990       .  S
O878        H904   0.966       .  S
O879       Zr889   2.363       .  S
O880       Zr889   2.379       .  S
O880        H905   0.965       .  S
C881       C2872   1.485   1_565  S
C882       C2776   1.484       .  S
C883       C2689   1.446       .  S
O884        H920   0.990       .  S
O885        C887   1.281       .  A
O886        C887   1.293       .  A
C887       C2641   1.492       .  S
O888       Zr889   2.440       .  S
O888        H917   0.990       .  S
Zr889       O892   2.437       .  S
Zr889       O893   2.438       .  S
Zr889       O894   2.443       .  S
O890        C895   1.285       .  A
O891        H908   0.990       .  S
O891        H923   0.988       .  S
O892        H909   0.990       .  S
O893        H913   0.990       .  S
O893        H922   0.990       .  S
O894        C895   1.287       .  A
C895       C2908   1.489       .  S
O896        H915   0.990       .  S
O896        H919   0.990       .  S
O897        H911   0.990       .  S
O897        H918   0.990       .  S
O898        C902   1.287       .  A
O899        C902   1.282       .  A
O900        H910   0.990       .  S
O901        H914   0.990       .  S
C902       C2629   1.466       .  S
Zr925       O926   2.440       .  S
Zr925       O927   2.430       .  S
Zr925       O928   2.427       .  S
Zr925       O931   2.438       .  S
Zr925       O933   2.368       .  S
Zr925       O934   2.384       .  S
Zr925       O935   2.413       .  S
Zr925       O936   2.376       .  S
O926        H982   0.990       .  S
O926        H990   0.990       .  S
O927        C947   1.283       .  A
O928        C949   1.284       .  A
O929       Zr939   2.455       .  S
O929        C948   1.288       .  A
O930       Zr938   2.398       .  S
O930        C949   1.276       .  A
O931        C948   1.287       .  A
O932       Zr940   2.465       .  S
O932        C947   1.288       .  A
O933       Zr938   2.381       .  S
O933       Zr940   2.355       .  S
O934       Zr939   2.401       .  S
O934       Zr940   2.390       .  S
O934        H969   0.966       .  S
O935       Zr938   2.398       .  S
O935       Zr955   2.420       .  S
O935        H972   0.966       .  S
O936       Zr939   2.368       .  S
O936       Zr955   2.362       .  S
Zr937       O962   2.439       .  S
Zr937       O956   2.443       .  S
Zr937       O964   2.437       .  S
Zr937       O952   2.481       .  S
Zr937       O943   2.415       .  S
Zr937       O944   2.418       .  S
Zr937       O945   2.364       .  S
Zr937       O946   2.392       .  S
Zr938       O957   2.437       .  S
Zr938       O950   2.434       .  S
Zr938       O951   2.410       .  S
Zr938       O944   2.391       .  S
Zr938       O945   2.376       .  S
Zr939       O941   2.435       .  S
Zr939       O963   2.438       .  S
Zr939       O965   2.428       .  S
Zr939       O943   2.392       .  S
Zr939       O946   2.396       .  S
Zr940       O966   2.435       .  S
Zr940       O967   2.434       .  S
Zr940       O942   2.436       .  S
Zr940       O943   2.401       .  S
Zr940       O944   2.428       .  S
O941        H978   0.990       .  S
O942        H973   0.990       .  S
O942        H987   0.990       .  S
O944        H970   0.966       .  S
O945       Zr955   2.357       .  S
O946       Zr955   2.386       .  S
O946        H971   0.966       .  S
C947       C2716   1.493       .  S
C948       C2740   1.473       .  S
C949       C2605   1.478       .  S
O950        H986   0.989       .  S
O951        C953   1.281       .  A
O952        C953   1.293       .  A
C953       C2680   1.488       .  S
O954       Zr955   2.438       .  S
O954        H983   0.990       .  S
Zr955       O958   2.436       .  S
Zr955       O959   2.440       .  S
Zr955       O960   2.429       .  S
O956        C961   1.287       .  A
O957        H974   0.990       .  S
O957        H989   0.990       .  S
O958        H975   0.990       .  S
O959        H979   0.990       .  S
O959        H988   0.990       .  S
O960        C961   1.284       .  A
C961       C2617   1.489       .  S
O962        H981   0.990       .  S
O962        H985   0.990       .  S
O963        H977   0.990       .  S
O963        H984   0.990       .  S
O964        C968   1.287       .  A
O965        C968   1.285       .  A
O966        H976   0.990       .  S
O967        H980   0.990       .  S
C968       C3013   1.487       .  S
Zr991       O992   2.439       .  S
Zr991       O993   2.414       .  S
Zr991       O994   2.423       .  S
Zr991       O997   2.411       .  S
Zr991       O999   2.360       .  S
Zr991      O1000   2.380       .  S
Zr991      O1001   2.395       .  S
Zr991      O1002   2.381       .  S
O992       H1048   0.990       .  S
O992       H1056   0.990       .  S
O993       C1013   1.281       .  A
O994       C1015   1.283       .  A
O995      Zr1005   2.450       .  S
O995       C1014   1.286       .  A
O996      Zr1004   2.399       .  S
O996       C1015   1.276       .  A
O997       C1014   1.283       .  A
O998      Zr1006   2.470       .  S
O998       C1013   1.290       .  A
O999      Zr1004   2.371       .  S
O999      Zr1006   2.352       .  S
O1000     Zr1005   2.401       .  S
O1000     Zr1006   2.384       .  S
O1000      H1035   0.966       .  S
O1001     Zr1004   2.390       .  S
O1001     Zr1021   2.412       .  S
O1001      H1038   0.966       .  S
O1002     Zr1005   2.378       .  S
O1002     Zr1021   2.368       .  S
Zr1003     O1028   2.439       .  S
Zr1003     O1022   2.434       .  S
Zr1003     O1030   2.432       .  S
Zr1003     O1018   2.483       .  S
Zr1003     O1009   2.415       .  S
Zr1003     O1010   2.418       .  S
Zr1003     O1011   2.363       .  S
Zr1003     O1012   2.393       .  S
Zr1004     O1023   2.436       .  S
Zr1004     O1016   2.435       .  S
Zr1004     O1017   2.390       .  S
Zr1004     O1010   2.389       .  S
Zr1004     O1011   2.375       .  S
Zr1005     O1007   2.436       .  S
Zr1005     O1029   2.438       .  S
Zr1005     O1031   2.425       .  S
Zr1005     O1009   2.391       .  S
Zr1005     O1012   2.392       .  S
Zr1006     O1032   2.435       .  S
Zr1006     O1033   2.435       .  S
Zr1006     O1008   2.435       .  S
Zr1006     O1009   2.398       .  S
Zr1006     O1010   2.430       .  S
O1007      H1044   0.990       .  S
O1008      H1039   0.990       .  S
O1008      H1053   0.990       .  S
O1010      H1036   0.966       .  S
O1011     Zr1021   2.358       .  S
O1012     Zr1021   2.385       .  S
O1012      H1037   0.966       .  S
C1013      C2644   1.485       .  S
C1014      C2665   1.487       .  S
C1015      C2608   1.478       .  S
O1016      H1052   0.990       .  S
O1017      C1019   1.279       .  A
O1018      C1019   1.292       .  A
C1019      C2752   1.489       .  S
O1020     Zr1021   2.439       .  S
O1020      H1049   0.990       .  S
Zr1021     O1024   2.437       .  S
Zr1021     O1025   2.440       .  S
Zr1021     O1026   2.419       .  S
O1022      C1027   1.284       .  A
O1023      H1040   0.990       .  S
O1023      H1055   0.990       .  S
O1024      H1041   0.990       .  S
O1025      H1045   0.990       .  S
O1025      H1054   0.990       .  S
O1026      C1027   1.284       .  A
C1027      C2593   1.491       .  S
O1028      H1047   0.990       .  S
O1028      H1051   0.990       .  S
O1029      H1043   0.990       .  S
O1029      H1050   0.990       .  S
O1030      C1034   1.285       .  A
O1031      C1034   1.283       .  A
O1032      H1042   0.990       .  S
O1033      H1046   0.990       .  S
C1034      C3172   1.461       .  S
Zr1057     O1058   2.437       .  S
Zr1057     O1059   2.430       .  S
Zr1057     O1060   2.415       .  S
Zr1057     O1063   2.464       .  S
Zr1057     O1065   2.385       .  S
Zr1057     O1066   2.374       .  S
Zr1057     O1067   2.421       .  S
Zr1057     O1068   2.409       .  S
O1058      H1114   0.990       .  S
O1058      H1122   0.990       .  S
O1059      C1079   1.282       .  A
O1060      C1081   1.283       .  A
O1061     Zr1071   2.421       .  S
O1061      C1080   1.283       .  A
O1062     Zr1070   2.459       .  S
O1062      C1081   1.290       .  A
O1063      C1080   1.290       .  A
O1064     Zr1072   2.414       .  S
O1064      C1079   1.282       .  A
O1065     Zr1070   2.401       .  S
O1065     Zr1072   2.383       .  S
O1066     Zr1071   2.376       .  S
O1066     Zr1072   2.338       .  S
O1066      H1101   0.964       .  S
O1067     Zr1070   2.406       .  S
O1067     Zr1087   2.389       .  S
O1067      H1104   0.964       .  S
O1068     Zr1071   2.388       .  S
O1068     Zr1087   2.427       .  S
Zr1069     O1094   2.439       .  S
Zr1069     O1088   2.443       .  S
Zr1069     O1096   2.425       .  S
Zr1069     O1084   2.449       .  S
Zr1069     O1075   2.415       .  S
Zr1069     O1076   2.397       .  S
Zr1069     O1077   2.381       .  S
Zr1069     O1078   2.374       .  S
Zr1070     O1089   2.434       .  S
Zr1070     O1082   2.435       .  S
Zr1070     O1083   2.462       .  S
Zr1070     O1076   2.402       .  S
Zr1070     O1077   2.407       .  S
Zr1071     O1073   2.434       .  S
Zr1071     O1095   2.436       .  S
Zr1071     O1097   2.398       .  S
Zr1071     O1075   2.397       .  S
Zr1071     O1078   2.379       .  S
Zr1072     O1098   2.436       .  S
Zr1072     O1099   2.435       .  S
Zr1072     O1074   2.438       .  S
Zr1072     O1075   2.408       .  S
Zr1072     O1076   2.343       .  S
O1073      H1110   0.990       .  S
O1074      H1105   0.990       .  S
O1074      H1119   0.990       .  S
O1076      H1102   0.960       .  S
O1077     Zr1087   2.392       .  S
O1078     Zr1087   2.340       .  S
O1078      H1103   0.962       .  S
C1079      C2704   1.484       .  S
C1080      C2584   1.481       .  S
C1081      C2536   1.469       .  S
O1082      H1118   0.990       .  S
O1083      C1085   1.291       .  A
O1084      C1085   1.290       .  A
C1085      C2548   1.483       .  S
O1086     Zr1087   2.439       .  S
O1086      H1115   0.990       .  S
Zr1087     O1090   2.436       .  S
Zr1087     O1091   2.438       .  S
Zr1087     O1092   2.468       .  S
O1088      C1093   1.286       .  A
O1089      H1106   0.990       .  S
O1089      H1121   0.990       .  S
O1090      H1107   0.990       .  S
O1091      H1111   0.990       .  S
O1091      H1120   0.990       .  S
O1092      C1093   1.288       .  A
C1093      C2560   1.494       .  S
O1094      H1113   0.990       .  S
O1094      H1117   0.990       .  S
O1095      H1109   0.990       .  S
O1095      H1116   0.990       .  S
O1096      C1100   1.285       .  A
O1097      C1100   1.278       .  A
O1098      H1108   0.990       .  S
O1099      H1112   0.990       .  S
C1100      C2572   1.473       .  S
Zr1123     O1124   2.436       .  S
Zr1123     O1125   2.419       .  S
Zr1123     O1126   2.423       .  S
Zr1123     O1129   2.483       .  S
Zr1123     O1131   2.391       .  S
Zr1123     O1132   2.373       .  S
Zr1123     O1133   2.423       .  S
Zr1123     O1134   2.404       .  S
O1124      H1180   0.990       .  S
O1124      H1188   0.990       .  S
O1125      C1145   1.281       .  A
O1126      C1147   1.284       .  A
O1127     Zr1137   2.409       .  S
O1127      C1146   1.281       .  A
O1128     Zr1136   2.463       .  S
O1128      C1147   1.292       .  A
O1129      C1146   1.294       .  A
O1130     Zr1138   2.420       .  S
O1130      C1145   1.281       .  A
O1131     Zr1136   2.400       .  S
O1131     Zr1138   2.377       .  S
O1132     Zr1137   2.379       .  S
O1132     Zr1138   2.344       .  S
O1132      H1167   0.964       .  S
O1133     Zr1136   2.411       .  S
O1133     Zr1153   2.390       .  S
O1133      H1170   0.965       .  S
O1134     Zr1137   2.390       .  S
O1134     Zr1153   2.426       .  S
Zr1135     O1160   2.439       .  S
Zr1135     O1154   2.439       .  S
Zr1135     O1162   2.419       .  S
Zr1135     O1150   2.430       .  S
Zr1135     O1141   2.403       .  S
Zr1135     O1142   2.398       .  S
Zr1135     O1143   2.380       .  S
Zr1135     O1144   2.368       .  S
Zr1136     O1155   2.434       .  S
Zr1136     O1148   2.435       .  S
Zr1136     O1149   2.483       .  S
Zr1136     O1142   2.401       .  S
Zr1136     O1143   2.402       .  S
Zr1137     O1139   2.434       .  S
Zr1137     O1161   2.438       .  S
Zr1137     O1163   2.405       .  S
Zr1137     O1141   2.389       .  S
Zr1137     O1144   2.372       .  S
Zr1138     O1164   2.436       .  S
Zr1138     O1165   2.435       .  S
Zr1138     O1140   2.437       .  S
Zr1138     O1141   2.408       .  S
Zr1138     O1142   2.355       .  S
O1139      H1176   0.990       .  S
O1140      H1171   0.990       .  S
O1140      H1185   0.990       .  S
O1142      H1168   0.962       .  S
O1143     Zr1153   2.388       .  S
O1144     Zr1153   2.340       .  S
O1144      H1169   0.963       .  S
C1145      C2632   1.460       .  S
C1146      C2521   1.487       .  S
C1147      C2485   1.496       .  S
O1148      H1184   0.990       .  S
O1149      C1151   1.295       .  A
O1150      C1151   1.285       .  A
C1151      C2497   1.508       .  S
O1152     Zr1153   2.439       .  S
O1152      H1181   0.990       .  S
Zr1153     O1156   2.436       .  S
Zr1153     O1157   2.438       .  S
Zr1153     O1158   2.469       .  S
O1154      C1159   1.287       .  A
O1155      H1172   0.990       .  S
O1155      H1187   0.990       .  S
O1156      H1173   0.990       .  S
O1157      H1177   0.990       .  S
O1157      H1186   0.990       .  S
O1158      C1159   1.289       .  A
C1159      C2512   1.491       .  S
O1160      H1179   0.990       .  S
O1160      H1183   0.990       .  S
O1161      H1175   0.990       .  S
O1161      H1182   0.990       .  S
O1162      C1166   1.285       .  A
O1163      C1166   1.279       .  A
O1164      H1174   0.990       .  S
O1165      H1178   0.990       .  S
C1166      C2569   1.473       .  S
Zr1189     O1190   2.435       .  S
Zr1189     O1191   2.413       .  S
Zr1189     O1192   2.440       .  S
Zr1189     O1195   2.508       .  S
Zr1189     O1197   2.403       .  S
Zr1189     O1198   2.366       .  S
Zr1189     O1199   2.425       .  S
Zr1189     O1200   2.407       .  S
O1190      H1246   0.990       .  S
O1190      H1254   0.990       .  S
O1191      C1211   1.280       .  A
O1192      C1213   1.288       .  A
O1193     Zr1203   2.406       .  S
O1193      C1212   1.279       .  A
O1194     Zr1202   2.435       .  S
O1194      C1213   1.286       .  A
O1195      C1212   1.298       .  A
O1196     Zr1204   2.436       .  S
O1196      C1211   1.285       .  A
O1197     Zr1202   2.409       .  S
O1197     Zr1204   2.372       .  S
O1198     Zr1203   2.381       .  S
O1198     Zr1204   2.342       .  S
O1198      H1233   0.961       .  S
O1199     Zr1202   2.419       .  S
O1199     Zr1219   2.392       .  S
O1199      H1236   0.963       .  S
O1200     Zr1203   2.384       .  S
O1200     Zr1219   2.424       .  S
Zr1201     O1226   2.435       .  S
Zr1201     O1220   2.447       .  S
Zr1201     O1228   2.377       .  S
Zr1201     O1216   2.413       .  S
Zr1201     O1207   2.405       .  S
Zr1201     O1208   2.407       .  S
Zr1201     O1209   2.370       .  S
Zr1201     O1210   2.375       .  S
Zr1202     O1221   2.434       .  S
Zr1202     O1214   2.435       .  S
Zr1202     O1215   2.490       .  S
Zr1202     O1208   2.397       .  S
Zr1202     O1209   2.394       .  S
Zr1203     O1205   2.433       .  S
Zr1203     O1227   2.442       .  S
Zr1203     O1229   2.404       .  S
Zr1203     O1207   2.379       .  S
Zr1203     O1210   2.365       .  S
Zr1204     O1230   2.435       .  S
Zr1204     O1231   2.437       .  S
Zr1204     O1206   2.437       .  S
Zr1204     O1207   2.403       .  S
Zr1204     O1208   2.371       .  S
O1205      H1242   0.990       .  S
O1206      H1237   0.990       .  S
O1206      H1251   0.990       .  S
O1208      H1234   0.964       .  S
O1209     Zr1219   2.380       .  S
O1210     Zr1219   2.364       .  S
O1210      H1235   0.965       .  S
C1211      C2473   1.471       .  S
C1212      C2509   1.490       .  S
C1213      C2596   1.473       .  S
O1214      H1250   0.990       .  S
O1215      C1217   1.288       .  A
O1216      C1217   1.272       .  A
C1217      C2437   1.507       .  S
O1218     Zr1219   2.440       .  S
O1218      H1247   0.990       .  S
Zr1219     O1222   2.437       .  S
Zr1219     O1223   2.438       .  S
Zr1219     O1224   2.458       .  S
O1220      C1225   1.290       .  A
O1221      H1238   0.990       .  S
O1221      H1253   0.990       .  S
O1222      H1239   0.990       .  S
O1223      H1243   0.990   1_565  S
O1223      H1252   0.990       .  S
O1224      C1225   1.288       .  A
C1225      C2449   1.498   1_565  S
O1226      H1245   0.987       .  S
O1226      H1249   0.988       .  S
O1227      H1241   0.990       .  S
O1227      H1248   0.991       .  S
O1228      C1232   1.273       .  A
O1229      C1232   1.278       .  A
O1230      H1240   0.990       .  S
O1231      H1244   0.990       .  S
C1232      C2461   1.430       .  S
Zr1255     O1256   2.438       .  S
Zr1255     O1257   2.428       .  S
Zr1255     O1258   2.454       .  S
Zr1255     O1261   2.503       .  S
Zr1255     O1263   2.398       .  S
Zr1255     O1264   2.378       .  S
Zr1255     O1265   2.426       .  S
Zr1255     O1266   2.418       .  S
O1256      H1312   0.990       .  S
O1256      H1320   0.989       .  S
O1257      C1277   1.283       .  A
O1258      C1279   1.290       .  A
O1259     Zr1269   2.412       .  S
O1259      C1278   1.280       .  A
O1260     Zr1268   2.446       .  S
O1260      C1279   1.288       .  A
O1261      C1278   1.297       .  A
O1262     Zr1270   2.412       .  S
O1262      C1277   1.280       .  A
O1263     Zr1268   2.412       .  S
O1263     Zr1270   2.378       .  S
O1264     Zr1269   2.390       .  S
O1264     Zr1270   2.358       .  S
O1264      H1299   0.965       .  S
O1265     Zr1268   2.418       .  S
O1265     Zr1285   2.380       .  S
O1265      H1302   0.962       .  S
O1266     Zr1269   2.391       .  S
O1266     Zr1285   2.435       .  S
Zr1267     O1292   2.447       .  S
Zr1267     O1286   2.431       .  S
Zr1267     O1294   2.424       .  S
Zr1267     O1282   2.427       .  S
Zr1267     O1273   2.451       .  S
Zr1267     O1274   2.410       .  S
Zr1267     O1275   2.380       .  S
Zr1267     O1276   2.452       .  S
Zr1268     O1287   2.434       .  S
Zr1268     O1280   2.435       .  S
Zr1268     O1281   2.488       .  S
Zr1268     O1274   2.400       .  S
Zr1268     O1275   2.402       .  S
Zr1269     O1271   2.434       .  S
Zr1269     O1293   2.435       .  S
Zr1269     O1295   2.368       .  S
Zr1269     O1273   2.389       .  S
Zr1269     O1276   2.397       .  S
Zr1270     O1296   2.436       .  S
Zr1270     O1297   2.439       .  S
Zr1270     O1272   2.438       .  S
Zr1270     O1273   2.385       .  S
Zr1270     O1274   2.374       .  S
O1271      H1308   0.990       .  S
O1272      H1303   0.990       .  S
O1272      H1317   0.990       .  S
O1274      H1300   0.963       .  S
O1275     Zr1285   2.395       .  S
O1276     Zr1285   2.345       .  S
O1276      H1301   0.972       .  S
C1277      C2413   1.467       .  S
C1278      C2428   1.499       .  S
C1279      C2800   1.475       .  S
O1280      H1316   0.990       .  S
O1281      C1283   1.289       .  A
O1282      C1283   1.278       .  A
C1283      C2500   1.509       .  S
O1284     Zr1285   2.439       .  S
O1284      H1313   0.990       .  S
Zr1285     O1288   2.437       .  S
Zr1285     O1289   2.439       .  S
Zr1285     O1290   2.460       .  S
O1286      C1291   1.286       .  A
O1287      H1304   0.990       .  S
O1287      H1319   0.990       .  S
O1288      H1305   0.990       .  S
O1289      H1309   0.990   1_565  S
O1289      H1318   0.990       .  S
O1290      C1291   1.288       .  A
C1291      C2581   1.480   1_565  S
O1292      H1311   0.990       .  S
O1292      H1315   0.987       .  S
O1293      H1307   0.990       .  S
O1293      H1314   0.990       .  S
O1294      C1298   1.260       .  A
O1295      C1298   1.256       .  A
O1296      H1306   0.990       .  S
O1297      H1310   0.990       .  S
C1298      C2464   1.431       .  S
Zr1321     O1322   2.436       .  S
Zr1321     O1323   2.439       .  S
Zr1321     O1324   2.451       .  S
Zr1321     O1327   2.496       .  S
Zr1321     O1329   2.389       .  S
Zr1321     O1330   2.379       .  S
Zr1321     O1331   2.428       .  S
Zr1321     O1332   2.416       .  S
O1322      H1378   0.990       .  S
O1322      H1386   0.990       .  S
O1323      C1343   1.285       .  A
O1324      C1345   1.289       .  A
O1325     Zr1335   2.398       .  S
O1325      C1344   1.280       .  A
O1326     Zr1334   2.423       .  S
O1326      C1345   1.284       .  A
O1327      C1344   1.296       .  A
O1328     Zr1336   2.417       .  S
O1328      C1343   1.281       .  A
O1329     Zr1334   2.398       .  S
O1329     Zr1336   2.381       .  S
O1330     Zr1335   2.379       .  S
O1330     Zr1336   2.342       .  S
O1330      H1365   0.965       .  S
O1331     Zr1334   2.398       .  S
O1331     Zr1351   2.396       .  S
O1331      H1368   0.965       .  S
O1332     Zr1335   2.389       .  S
O1332     Zr1351   2.429       .  S
Zr1333     O1358   2.445       .  S
Zr1333     O1352   2.442       .  S
Zr1333     O1360   2.432       .  S
Zr1333     O1348   2.461       .  S
Zr1333     O1339   2.413       .  S
Zr1333     O1340   2.398       .  S
Zr1333     O1341   2.384       .  S
Zr1333     O1342   2.375       .  S
Zr1334     O1353   2.434       .  S
Zr1334     O1346   2.434       .  S
Zr1334     O1347   2.428       .  S
Zr1334     O1340   2.399       .  S
Zr1334     O1341   2.397       .  S
Zr1335     O1337   2.434       .  S
Zr1335     O1359   2.436       .  S
Zr1335     O1361   2.398       .  S
Zr1335     O1339   2.390       .  S
Zr1335     O1342   2.371       .  S
Zr1336     O1362   2.435       .  S
Zr1336     O1363   2.436       .  S
Zr1336     O1338   2.438       .  S
Zr1336     O1339   2.407       .  S
Zr1336     O1340   2.350       .  S
O1337      H1374   0.990       .  S
O1338      H1369   0.990       .  S
O1338      H1383   0.990       .  S
O1340      H1366   0.962       .  S
O1341     Zr1351   2.388       .  S
O1342     Zr1351   2.344       .  S
O1342      H1367   0.964       .  S
C1343      C2728   1.474       .  S
C1344      C2452   1.502       .  S
C1345      C2365   1.489       .  S
O1346      H1382   0.990       .  S
O1347      C1349   1.284       .  A
O1348      C1349   1.291       .  A
C1349      C2377   1.472       .  S
O1350     Zr1351   2.439       .  S
O1350      H1379   0.990       .  S
Zr1351     O1354   2.436       .  S
Zr1351     O1355   2.438       .  S
Zr1351     O1356   2.473       .  S
O1352      C1357   1.288       .  A
O1353      H1370   0.990       .  S
O1353      H1385   0.990       .  S
O1354      H1371   0.990       .  S
O1355      H1375   0.990       .  S
O1355      H1384   0.990       .  S
O1356      C1357   1.290       .  A
C1357      C2392   1.496       .  S
O1358      H1377   0.990       .  S
O1358      H1381   0.990       .  S
O1359      H1373   0.990       .  S
O1359      H1380   0.990       .  S
O1360      C1364   1.286       .  A
O1361      C1364   1.278       .  A
O1362      H1372   0.990       .  S
O1363      H1376   0.990       .  S
C1364      C2404   1.474       .  S
Zr1387     O1388   2.436       .  S
Zr1387     O1389   2.423       .  S
Zr1387     O1390   2.425       .  S
Zr1387     O1393   2.480       .  S
Zr1387     O1395   2.390       .  S
Zr1387     O1396   2.389       .  S
Zr1387     O1397   2.431       .  S
Zr1387     O1398   2.419       .  S
O1388      H1444   0.990       .  S
O1388      H1452   0.990       .  S
O1389      C1409   1.282       .  A
O1390      C1411   1.286       .  A
O1391     Zr1401   2.429       .  S
O1391      C1410   1.278       .  A
O1392     Zr1400   2.462       .  S
O1392      C1411   1.291       .  A
O1393      C1410   1.287       .  A
O1394     Zr1402   2.415       .  S
O1394      C1409   1.281       .  A
O1395     Zr1400   2.399       .  S
O1395     Zr1402   2.382       .  S
O1396     Zr1401   2.375       .  S
O1396     Zr1402   2.340       .  S
O1396      H1431   0.964       .  S
O1397     Zr1400   2.405       .  S
O1397     Zr1417   2.394       .  S
O1397      H1434   0.964       .  S
O1398     Zr1401   2.387       .  S
O1398     Zr1417   2.429       .  S
Zr1399     O1424   2.444       .  S
Zr1399     O1418   2.429       .  S
Zr1399     O1426   2.434       .  S
Zr1399     O1414   2.440       .  S
Zr1399     O1405   2.403       .  S
Zr1399     O1406   2.399       .  S
Zr1399     O1407   2.383       .  S
Zr1399     O1408   2.375       .  S
Zr1400     O1419   2.433       .  S
Zr1400     O1412   2.435       .  S
Zr1400     O1413   2.464       .  S
Zr1400     O1406   2.401       .  S
Zr1400     O1407   2.404       .  S
Zr1401     O1403   2.433       .  S
Zr1401     O1425   2.439       .  S
Zr1401     O1427   2.394       .  S
Zr1401     O1405   2.397       .  S
Zr1401     O1408   2.386       .  S
Zr1402     O1428   2.435       .  S
Zr1402     O1429   2.435       .  S
Zr1402     O1404   2.437       .  S
Zr1402     O1405   2.406       .  S
Zr1402     O1406   2.350       .  S
O1403      H1440   0.990       .  S
O1404      H1435   0.990       .  S
O1404      H1449   0.990       .  S
O1406      H1432   0.963       .  S
O1407     Zr1417   2.383       .  S
O1408     Zr1417   2.346       .  S
O1408      H1433   0.965       .  S
C1409      C2656   1.464       .  S
C1410      C2353   1.513       .  S
C1411      C2341   1.489       .  S
O1412      H1448   0.990       .  S
O1413      C1415   1.291       .  A
O1414      C1415   1.287       .  A
C1415      C2440   1.503       .  S
O1416     Zr1417   2.440       .  S
O1416      H1445   0.990       .  S
Zr1417     O1420   2.436       .  S
Zr1417     O1421   2.439       .  S
Zr1417     O1422   2.479       .  S
O1418      C1423   1.285       .  A
O1419      H1436   0.990       .  S
O1419      H1451   0.989       .  S
O1420      H1437   0.990       .  S
O1421      H1441   0.990       .  S
O1421      H1450   0.990       .  S
O1422      C1423   1.292       .  A
C1423      C2425   1.500       .  S
O1424      H1443   0.990       .  S
O1424      H1447   0.990       .  S
O1425      H1439   0.990       .  S
O1425      H1446   0.989       .  S
O1426      C1430   1.287       .  A
O1427      C1430   1.276       .  A
O1428      H1438   0.990       .  S
O1429      H1442   0.990       .  S
C1430      C2401   1.476       .  S
Zr1453     O1454   2.436       .  S
Zr1453     O1455   2.431       .  S
Zr1453     O1456   2.439       .  S
Zr1453     O1459   2.507       .  S
Zr1453     O1461   2.393       .  S
Zr1453     O1462   2.363       .  S
Zr1453     O1463   2.431       .  S
Zr1453     O1464   2.416       .  S
O1454      H1510   0.990       .  S
O1454      H1518   0.990       .  S
O1455      C1475   1.284       .  A
O1456      C1477   1.288       .  A
O1457     Zr1467   2.430       .  S
O1457      C1476   1.284       .  A
O1458     Zr1466   2.445       .  S
O1458      C1477   1.287       .  A
O1459      C1476   1.299       .  A
O1460     Zr1468   2.415       .  S
O1460      C1475   1.280       .  A
O1461     Zr1466   2.401       .  S
O1461     Zr1468   2.383       .  S
O1462     Zr1467   2.373       .  S
O1462     Zr1468   2.331       .  S
O1462      H1497   0.960       .  S
O1463     Zr1466   2.409       .  S
O1463     Zr1483   2.402       .  S
O1463      H1500   0.964       .  S
O1464     Zr1467   2.383       .  S
O1464     Zr1483   2.440       .  S
Zr1465     O1490   2.441   1_556  S
Zr1465     O1484   2.438       .  S
Zr1465     O1492   2.414       .  S
Zr1465     O1480   2.438   1_556  S
Zr1465     O1471   2.415       .  S
Zr1465     O1472   2.392       .  S
Zr1465     O1473   2.378       .  S
Zr1465     O1474   2.381       .  S
Zr1466     O1485   2.433       .  S
Zr1466     O1478   2.435       .  S
Zr1466     O1479   2.469   1_556  S
Zr1466     O1472   2.391       .  S
Zr1466     O1473   2.406       .  S
Zr1467     O1469   2.433       .  S
Zr1467     O1491   2.440       .  S
Zr1467     O1493   2.388       .  S
Zr1467     O1471   2.409       .  S
Zr1467     O1474   2.394       .  S
Zr1468     O1494   2.433       .  S
Zr1468     O1495   2.436       .  S
Zr1468     O1470   2.438       .  S
Zr1468     O1471   2.402       .  S
Zr1468     O1472   2.332       .  S
O1469      H1506   0.990       .  S
O1470      H1501   0.990       .  S
O1470      H1515   0.990       .  S
O1472      H1498   0.961       .  S
O1473     Zr1483   2.391       .  S
O1474     Zr1483   2.349       .  S
O1474      H1499   0.964       .  S
C1475      C2329   1.463       .  S
C1476      C2557   1.496       .  S
C1477      C2620   1.473       .  S
O1478      H1514   0.990       .  S
O1479      C1481   1.291       .  A
O1480      C1481   1.285       .  A
C1481      C2380   1.474       .  S
O1482     Zr1483   2.439       .  S
O1482      H1511   0.990   1_545  S
Zr1483     O1486   2.436       .  S
Zr1483     O1487   2.437   1_545  S
Zr1483     O1488   2.485   1_545  S
O1484      C1489   1.284   1_545  A
O1485      H1502   0.990       .  S
O1485      H1517   0.990       .  S
O1486      H1503   0.990   1_545  S
O1487      H1507   0.990       .  S
O1487      H1516   0.990       .  S
O1488      C1489   1.292       .  A
C1489      C2356   1.510       .  S
O1490      H1509   0.989       .  S
O1490      H1513   0.991       .  S
O1491      H1505   0.990       .  S
O1491      H1512   0.990       .  S
O1492      C1496   1.280       .  A
O1493      C1496   1.269       .  A
O1494      H1504   0.990       .  S
O1495      H1508   0.990       .  S
C1496      C2320   1.433       .  S
Zr1519     O1520   2.436       .  S
Zr1519     O1521   2.430       .  S
Zr1519     O1522   2.465       .  S
Zr1519     O1525   2.512       .  S
Zr1519     O1527   2.398       .  S
Zr1519     O1528   2.377       .  S
Zr1519     O1529   2.426       .  S
Zr1519     O1530   2.416       .  S
O1520      H1576   0.990       .  S
O1520      H1584   0.990       .  S
O1521      C1541   1.283       .  A
O1522      C1543   1.293       .  A
O1523     Zr1533   2.406       .  S
O1523      C1542   1.280       .  A
O1524     Zr1532   2.432   1_554  S
O1524      C1543   1.286       .  A
O1525      C1542   1.300       .  A
O1526     Zr1534   2.416       .  S
O1526      C1541   1.282       .  A
O1527     Zr1532   2.403   1_554  S
O1527     Zr1534   2.377       .  S
O1528     Zr1533   2.381       .  S
O1528     Zr1534   2.346       .  S
O1528      H1563   0.964       .  S
O1529     Zr1532   2.416   1_554  S
O1529     Zr1549   2.386       .  S
O1529      H1566   0.962       .  S
O1530     Zr1533   2.385       .  S
O1530     Zr1549   2.424       .  S
Zr1531     O1556   2.441       .  S
Zr1531     O1550   2.438       .  S
Zr1531     O1558   2.394       .  S
Zr1531     O1546   2.427       .  S
Zr1531     O1537   2.409       .  S
Zr1531     O1538   2.399       .  S
Zr1531     O1539   2.372       .  S
Zr1531     O1540   2.381   1_556  S
Zr1532     O1551   2.433       .  S
Zr1532     O1544   2.435       .  S
Zr1532     O1545   2.458       .  S
Zr1532     O1538   2.401       .  S
Zr1532     O1539   2.401       .  S
Zr1533     O1535   2.434       .  S
Zr1533     O1557   2.437       .  S
Zr1533     O1559   2.394       .  S
Zr1533     O1537   2.395   1_554  S
Zr1533     O1540   2.380       .  S
Zr1534     O1560   2.436       .  S
Zr1534     O1561   2.436   1_554  S
Zr1534     O1536   2.437   1_554  S
Zr1534     O1537   2.394   1_554  S
Zr1534     O1538   2.358   1_554  S
O1535      H1572   0.990       .  S
O1536      H1567   0.990       .  S
O1536      H1581   0.990       .  S
O1538      H1564   0.963       .  S
O1539     Zr1549   2.387   1_556  S
O1540     Zr1549   2.350       .  S
O1540      H1565   0.964       .  S
C1541      C2305   1.480       .  S
C1542      C2389   1.499       .  S
C1543      C2857   1.485       .  S
O1544      H1580   0.990       .  S
O1545      C1547   1.288       .  A
O1546      C1547   1.280       .  A
C1547      C2545   1.487       .  S
O1548     Zr1549   2.439       .  S
O1548      H1577   0.990       .  S
Zr1549     O1552   2.437       .  S
Zr1549     O1553   2.438   1_545  S
Zr1549     O1554   2.459   1_544  S
O1550      C1555   1.285   1_545  A
O1551      H1568   0.990       .  S
O1551      H1583   0.989       .  S
O1552      H1569   0.990   1_545  S
O1553      H1573   0.990       .  S
O1553      H1582   0.990       .  S
O1554      C1555   1.287       .  A
C1555      C2524   1.484       .  S
O1556      H1575   0.990       .  S
O1556      H1579   0.990       .  S
O1557      H1571   0.990       .  S
O1557      H1578   0.990       .  S
O1558      C1562   1.275       .  A
O1559      C1562   1.273   1_554  A
O1560      H1570   0.990       .  S
O1561      H1574   0.990       .  S
C1562      C2317   1.427       .  S
Zr1585     O1586   2.445       .  S
Zr1585     O1587   2.426       .  S
Zr1585     O1588   2.399       .  S
Zr1585     O1591   2.423       .  S
Zr1585     O1593   2.374       .  S
Zr1585     O1594   2.376       .  S
Zr1585     O1595   2.425       .  S
Zr1585     O1596   2.383       .  S
O1586      H1642   0.988       .  S
O1586      H1650   0.990       .  S
O1587      C1607   1.281       .  A
O1588      C1609   1.277       .  A
O1589     Zr1599   2.463       .  S
O1589      C1608   1.288       .  A
O1590     Zr1598   2.410       .  S
O1590      C1609   1.272       .  A
O1591      C1608   1.282       .  A
O1592     Zr1600   2.469       .  S
O1592      C1607   1.289       .  A
O1593     Zr1598   2.389       .  S
O1593     Zr1600   2.357       .  S
O1594     Zr1599   2.402       .  S
O1594     Zr1600   2.393       .  S
O1594      H1629   0.966       .  S
O1595     Zr1598   2.412       .  S
O1595     Zr1615   2.407       .  S
O1595      H1632   0.962       .  S
O1596     Zr1599   2.372       .  S
O1596     Zr1615   2.370       .  S
Zr1597     O1622   2.437       .  S
Zr1597     O1616   2.434       .  S
Zr1597     O1624   2.422       .  S
Zr1597     O1612   2.493       .  S
Zr1597     O1603   2.418       .  S
Zr1597     O1604   2.414       .  S
Zr1597     O1605   2.351       .  S
Zr1597     O1606   2.393       .  S
Zr1598     O1617   2.439       .  S
Zr1598     O1610   2.434       .  S
Zr1598     O1611   2.419       .  S
Zr1598     O1604   2.387       .  S
Zr1598     O1605   2.378       .  S
Zr1599     O1601   2.436       .  S
Zr1599     O1623   2.437       .  S
Zr1599     O1625   2.426       .  S
Zr1599     O1603   2.398       .  S
Zr1599     O1606   2.395       .  S
Zr1600     O1626   2.436       .  S
Zr1600     O1627   2.434       .  S
Zr1600     O1602   2.435       .  S
Zr1600     O1603   2.403       .  S
Zr1600     O1604   2.434       .  S
O1601      H1638   0.990       .  S
O1602      H1633   0.990       .  S
O1602      H1647   0.990       .  S
O1604      H1630   0.966       .  S
O1605     Zr1615   2.353       .  S
O1606     Zr1615   2.379       .  S
O1606      H1631   0.965       .  S
C1607      C2269   1.499       .  S
C1608      C2257   1.471       .  S
C1609      C2281   1.443       .  S
O1610      H1646   0.990       .  S
O1611      C1613   1.282       .  A
O1612      C1613   1.296       .  A
C1613      C2296   1.490       .  S
O1614     Zr1615   2.439       .  S
O1614      H1643   0.991       .  S
Zr1615     O1618   2.432       .  S
Zr1615     O1619   2.438       .  S
Zr1615     O1620   2.431       .  S
O1616      C1621   1.284       .  A
O1617      H1634   0.989       .  S
O1617      H1649   0.989       .  S
O1618      H1635   0.991       .  S
O1619      H1639   0.990       .  S
O1619      H1648   0.990       .  S
O1620      C1621   1.283       .  A
C1621      C2368   1.475       .  S
O1622      H1641   0.990       .  S
O1622      H1645   0.990       .  S
O1623      H1637   0.990       .  S
O1623      H1644   0.990       .  S
O1624      C1628   1.284       .  A
O1625      C1628   1.283       .  A
O1626      H1636   0.990       .  S
O1627      H1640   0.990       .  S
C1628      C3076   1.458       .  S
Zr1651     O1652   2.442       .  S
Zr1651     O1653   2.417       .  S
Zr1651     O1654   2.396       .  S
Zr1651     O1657   2.406       .  S
Zr1651     O1659   2.375       .  S
Zr1651     O1660   2.373       .  S
Zr1651     O1661   2.406       .  S
Zr1651     O1662   2.391       .  S
O1652      H1708   0.990       .  S
O1652      H1716   0.989       .  S
O1653      C1673   1.282       .  A
O1654      C1675   1.275       .  A
O1655     Zr1665   2.462       .  S
O1655      C1674   1.287       .  A
O1656     Zr1664   2.401       .  S
O1656      C1675   1.278       .  A
O1657      C1674   1.276       .  A
O1658     Zr1666   2.469       .  S
O1658      C1673   1.289       .  A
O1659     Zr1664   2.385       .  S
O1659     Zr1666   2.363       .  S
O1660     Zr1665   2.398       .  S
O1660     Zr1666   2.382       .  S
O1660      H1695   0.966       .  S
O1661     Zr1664   2.397       .  S
O1661     Zr1681   2.397       .  S
O1661      H1698   0.963       .  S
O1662     Zr1665   2.374       .  S
O1662     Zr1681   2.375       .  S
Zr1663     O1688   2.439       .  S
Zr1663     O1682   2.431       .  S
Zr1663     O1690   2.424       .  S
Zr1663     O1678   2.479       .  S
Zr1663     O1669   2.414       .  S
Zr1663     O1670   2.412       .  S
Zr1663     O1671   2.361       .  S
Zr1663     O1672   2.393       .  S
Zr1664     O1683   2.440       .  S
Zr1664     O1676   2.435       .  S
Zr1664     O1677   2.417       .  S
Zr1664     O1670   2.383       .  S
Zr1664     O1671   2.376       .  S
Zr1665     O1667   2.435       .  S
Zr1665     O1689   2.437       .  S
Zr1665     O1691   2.423       .  S
Zr1665     O1669   2.401       .  S
Zr1665     O1672   2.395       .  S
Zr1666     O1692   2.435       .  S
Zr1666     O1693   2.434       .  S
Zr1666     O1668   2.436       .  S
Zr1666     O1669   2.406       .  S
Zr1666     O1670   2.425       .  S
O1667      H1704   0.990       .  S
O1668      H1699   0.990       .  S
O1668      H1713   0.990       .  S
O1670      H1696   0.966       .  S
O1671     Zr1681   2.364       .  S
O1672     Zr1681   2.378       .  S
O1672      H1697   0.966       .  S
C1673      C2236   1.494       .  S
C1674      C2224   1.481       .  S
C1675      C2284   1.435       .  S
O1676      H1712   0.990       .  S
O1677      C1679   1.282       .  A
O1678      C1679   1.292       .  A
C1679      C2245   1.495       .  S
O1680     Zr1681   2.441       .  S
O1680      H1709   0.990       .  S
Zr1681     O1684   2.437       .  S
Zr1681     O1685   2.440       .  S
Zr1681     O1686   2.425       .  S
O1682      C1687   1.285       .  A
O1683      H1700   0.990       .  S
O1683      H1715   0.989       .  S
O1684      H1701   0.990       .  S
O1685      H1705   0.990       .  S
O1685      H1714   0.990       .  S
O1686      C1687   1.283       .  A
C1687      C2533   1.484       .  S
O1688      H1707   0.990       .  S
O1688      H1711   0.990       .  S
O1689      H1703   0.990       .  S
O1689      H1710   0.990       .  S
O1690      C1694   1.284       .  A
O1691      C1694   1.283       .  A
O1692      H1702   0.990       .  S
O1693      H1706   0.990       .  S
C1694      C2896   1.459       .  S
Zr1717     O1718   2.437       .  S
Zr1717     O1719   2.443       .  S
Zr1717     O1720   2.425       .  S
Zr1717     O1723   2.421       .  S
Zr1717     O1725   2.362       .  S
Zr1717     O1726   2.380       .  S
Zr1717     O1727   2.410       .  S
Zr1717     O1728   2.393       .  S
O1718      H1774   0.989       .  S
O1718      H1782   0.990       .  S
O1719      C1739   1.286       .  A
O1720      C1741   1.283       .  A
O1721     Zr1731   2.465       .  S
O1721      C1740   1.288       .  A
O1722     Zr1730   2.406       .  S
O1722      C1741   1.277       .  A
O1723      C1740   1.282       .  A
O1724     Zr1732   2.465       .  S
O1724      C1739   1.289       .  A
O1725     Zr1730   2.375       .  S
O1725     Zr1732   2.346       .  S
O1726     Zr1731   2.400       .  S
O1726     Zr1732   2.385       .  S
O1726      H1761   0.966       .  S
O1727     Zr1730   2.397       .  S
O1727     Zr1747   2.420       .  S
O1727      H1764   0.966       .  S
O1728     Zr1731   2.374       .  S
O1728     Zr1747   2.375       .  S
Zr1729     O1754   2.438       .  S
Zr1729     O1748   2.422       .  S
Zr1729     O1756   2.429       .  S
Zr1729     O1744   2.490       .  S
Zr1729     O1735   2.411       .  S
Zr1729     O1736   2.408       .  S
Zr1729     O1737   2.357       .  S
Zr1729     O1738   2.398       .  S
Zr1730     O1749   2.441       .  S
Zr1730     O1742   2.433       .  S
Zr1730     O1743   2.410       .  S
Zr1730     O1736   2.393       .  S
Zr1730     O1737   2.374       .  S
Zr1731     O1733   2.435       .  S
Zr1731     O1755   2.437       .  S
Zr1731     O1757   2.425       .  S
Zr1731     O1735   2.399       .  S
Zr1731     O1738   2.395       .  S
Zr1732     O1758   2.435       .  S
Zr1732     O1759   2.434       .  S
Zr1732     O1734   2.435       .  S
Zr1732     O1735   2.393       .  S
Zr1732     O1736   2.429       .  S
O1733      H1770   0.990       .  S
O1734      H1765   0.990       .  S
O1734      H1779   0.990       .  S
O1736      H1762   0.966       .  S
O1737     Zr1747   2.359       .  S
O1738     Zr1747   2.378       .  S
O1738      H1763   0.966       .  S
C1739      C2197   1.493       .  S
C1740      C2185   1.500       .  S
C1741      C2212   1.471       .  S
O1742      H1778   0.990       .  S
O1743      C1745   1.281       .  A
O1744      C1745   1.294       .  A
C1745      C2233   1.490       .  S
O1746     Zr1747   2.440       .  S
O1746      H1775   0.990       .  S
Zr1747     O1750   2.435       .  S
Zr1747     O1751   2.441       .  S
Zr1747     O1752   2.446       .  S
O1748      C1753   1.283       .  A
O1749      H1766   0.990       .  S
O1749      H1781   0.990       .  S
O1750      H1767   0.990       .  S
O1751      H1771   0.990       .  S
O1751      H1780   0.990       .  S
O1752      C1753   1.287       .  A
C1753      C3196   1.487       .  S
O1754      H1773   0.990       .  S
O1754      H1777   0.990       .  S
O1755      H1769   0.990       .  S
O1755      H1776   0.990       .  S
O1756      C1760   1.285       .  A
O1757      C1760   1.284       .  A
O1758      H1768   0.990       .  S
O1759      H1772   0.990       .  S
C1760      C2416   1.460       .  S
Zr1783     O1784   2.442       .  S
Zr1783     O1785   2.436       .  S
Zr1783     O1786   2.431       .  S
Zr1783     O1789   2.450       .  S
Zr1783     O1791   2.366       .  S
Zr1783     O1792   2.389       .  S
Zr1783     O1793   2.416       .  S
Zr1783     O1794   2.379       .  S
O1784      H1840   0.990       .  S
O1784      H1848   0.991       .  S
O1785      C1805   1.284       .  A
O1786      C1807   1.284       .  A
O1787     Zr1797   2.455       .  S
O1787      C1806   1.287       .  A
O1788     Zr1796   2.399       .  S
O1788      C1807   1.276       .  A
O1789      C1806   1.288       .  A
O1790     Zr1798   2.460       .  S
O1790      C1805   1.287       .  A
O1791     Zr1796   2.375       .  S
O1791     Zr1798   2.348       .  S
O1792     Zr1797   2.407       .  S
O1792     Zr1798   2.394       .  S
O1792      H1827   0.966       .  S
O1793     Zr1796   2.400       .  S
O1793     Zr1813   2.420       .  S
O1793      H1830   0.966       .  S
O1794     Zr1797   2.371       .  S
O1794     Zr1813   2.361       .  S
Zr1795     O1820   2.438       .  S
Zr1795     O1814   2.438       .  S
Zr1795     O1822   2.428       .  S
Zr1795     O1810   2.484       .  S
Zr1795     O1801   2.414       .  S
Zr1795     O1802   2.413       .  S
Zr1795     O1803   2.359       .  S
Zr1795     O1804   2.394       .  S
Zr1796     O1815   2.441       .  S
Zr1796     O1808   2.435       .  S
Zr1796     O1809   2.407       .  S
Zr1796     O1802   2.389       .  S
Zr1796     O1803   2.372       .  S
Zr1797     O1799   2.435       .  S
Zr1797     O1821   2.437       .  S
Zr1797     O1823   2.434       .  S
Zr1797     O1801   2.394       .  S
Zr1797     O1804   2.396       .  S
Zr1798     O1824   2.435       .  S
Zr1798     O1825   2.434       .  S
Zr1798     O1800   2.436       .  S
Zr1798     O1801   2.398       .  S
Zr1798     O1802   2.429       .  S
O1799      H1836   0.990       .  S
O1800      H1831   0.990       .  S
O1800      H1845   0.990       .  S
O1802      H1828   0.966       .  S
O1803     Zr1813   2.351       .  S
O1804     Zr1813   2.388       .  S
O1804      H1829   0.966       .  S
C1805      C2293   1.489       .  S
C1806      C2221   1.477       .  S
C1807      C2209   1.472       .  S
O1808      H1844   0.990       .  S
O1809      C1811   1.281       .  A
O1810      C1811   1.293       .  A
C1811      C2173   1.486       .  S
O1812     Zr1813   2.438       .  S
O1812      H1841   0.990       .  S
Zr1813     O1816   2.435       .  S
Zr1813     O1817   2.440       .  S
Zr1813     O1818   2.427       .  S
O1814      C1819   1.286       .  A
O1815      H1832   0.990       .  S
O1815      H1847   0.990       .  S
O1816      H1833   0.990       .  S
O1817      H1837   0.990       .  S
O1817      H1846   0.990       .  S
O1818      C1819   1.284       .  A
C1819      C2944   1.486       .  S
O1820      H1839   0.990       .  S
O1820      H1843   0.990       .  S
O1821      H1835   0.990       .  S
O1821      H1842   0.990       .  S
O1822      C1826   1.285       .  A
O1823      C1826   1.284       .  A
O1824      H1834   0.990       .  S
O1825      H1838   0.990       .  S
C1826      C2308   1.466       .  S
Zr1849     O1850   2.439       .  S
Zr1849     O1851   2.412       .  S
Zr1849     O1852   2.390       .  S
Zr1849     O1855   2.409       .  S
Zr1849     O1857   2.368   1_556  S
Zr1849     O1858   2.375       .  S
Zr1849     O1859   2.396       .  S
Zr1849     O1860   2.395       .  S
O1850      H1906   0.987       .  S
O1850      H1914   0.990       .  S
O1851      C1871   1.285       .  A
O1852      C1873   1.276       .  A
O1853     Zr1863   2.496       .  S
O1853      C1872   1.291       .  A
O1854     Zr1862   2.416       .  S
O1854      C1873   1.280   1_554  A
O1855      C1872   1.274       .  A
O1856     Zr1864   2.475   1_556  S
O1856      C1871   1.290       .  A
O1857     Zr1862   2.367       .  S
O1857     Zr1864   2.361       .  S
O1858     Zr1863   2.390       .  S
O1858     Zr1864   2.377   1_556  S
O1858      H1893   0.966       .  S
O1859     Zr1862   2.382   1_556  S
O1859     Zr1879   2.403   1_556  S
O1859      H1896   0.962       .  S
O1860     Zr1863   2.375       .  S
O1860     Zr1879   2.384   1_556  S
Zr1861     O1886   2.436       .  S
Zr1861     O1880   2.427       .  S
Zr1861     O1888   2.431       .  S
Zr1861     O1876   2.505       .  S
Zr1861     O1867   2.421       .  S
Zr1861     O1868   2.412       .  S
Zr1861     O1869   2.357       .  S
Zr1861     O1870   2.399       .  S
Zr1862     O1881   2.442       .  S
Zr1862     O1874   2.434       .  S
Zr1862     O1875   2.397       .  S
Zr1862     O1868   2.389       .  S
Zr1862     O1869   2.384       .  S
Zr1863     O1865   2.435       .  S
Zr1863     O1887   2.436       .  S
Zr1863     O1889   2.435   1_556  S
Zr1863     O1867   2.412   1_556  S
Zr1863     O1870   2.398   1_556  S
Zr1864     O1890   2.435       .  S
Zr1864     O1891   2.434       .  S
Zr1864     O1866   2.436       .  S
Zr1864     O1867   2.406       .  S
Zr1864     O1868   2.427       .  S
O1865      H1902   0.990       .  S
O1866      H1897   0.990       .  S
O1866      H1911   0.990       .  S
O1868      H1894   0.966       .  S
O1869     Zr1879   2.363       .  S
O1870     Zr1879   2.371       .  S
O1870      H1895   0.965       .  S
C1871      C2149   1.502       .  S
C1872      C2137   1.502       .  S
C1873      C2161   1.440       .  S
O1874      H1910   0.990       .  S
O1875      C1877   1.276       .  A
O1876      C1877   1.298       .  A
C1877      C2200   1.490       .  S
O1878     Zr1879   2.439   1_556  S
O1878      H1907   0.990       .  S
Zr1879     O1882   2.436       .  S
Zr1879     O1883   2.438   1_554  S
Zr1879     O1884   2.438       .  S
O1880      C1885   1.283       .  A
O1881      H1898   0.990       .  S
O1881      H1913   0.990       .  S
O1882      H1899   0.990       .  S
O1883      H1903   0.990       .  S
O1883      H1912   0.990       .  S
O1884      C1885   1.285       .  A
C1885      C2344   1.472       .  S
O1886      H1905   0.990       .  S
O1886      H1909   0.990       .  S
O1887      H1901   0.990       .  S
O1887      H1908   0.990       .  S
O1888      C1892   1.287       .  A
O1889      C1892   1.287       .  A
O1890      H1900   0.990       .  S
O1891      H1904   0.990       .  S
C1892      C3112   1.489       .  S
Zr1915     O1916   2.441   1_556  S
Zr1915     O1917   2.416       .  S
Zr1915     O1918   2.396       .  S
Zr1915     O1921   2.418   1_556  S
Zr1915     O1923   2.364       .  S
Zr1915     O1924   2.373       .  S
Zr1915     O1925   2.399       .  S
Zr1915     O1926   2.393       .  S
O1916      H1972   0.987   1_554  S
O1916      H1980   0.990       .  S
O1917      C1937   1.284       .  A
O1918      C1939   1.279       .  A
O1919     Zr1929   2.492   1_554  S
O1919      C1938   1.293       .  A
O1920     Zr1928   2.422       .  S
O1920      C1939   1.277       .  A
O1921      C1938   1.281       .  A
O1922     Zr1930   2.470       .  S
O1922      C1937   1.290       .  A
O1923     Zr1928   2.373       .  S
O1923     Zr1930   2.352       .  S
O1924     Zr1929   2.388       .  S
O1924     Zr1930   2.381       .  S
O1924      H1959   0.966       .  S
O1925     Zr1928   2.393       .  S
O1925     Zr1945   2.413       .  S
O1925      H1962   0.963       .  S
O1926     Zr1929   2.371       .  S
O1926     Zr1945   2.382       .  S
Zr1927     O1952   2.436       .  S
Zr1927     O1946   2.427       .  S
Zr1927     O1954   2.436       .  S
Zr1927     O1942   2.513       .  S
Zr1927     O1933   2.416       .  S
Zr1927     O1934   2.414       .  S
Zr1927     O1935   2.349       .  S
Zr1927     O1936   2.402       .  S
Zr1928     O1947   2.443       .  S
Zr1928     O1940   2.436       .  S
Zr1928     O1941   2.403       .  S
Zr1928     O1934   2.389       .  S
Zr1928     O1935   2.383       .  S
Zr1929     O1931   2.435       .  S
Zr1929     O1953   2.437       .  S
Zr1929     O1955   2.433       .  S
Zr1929     O1933   2.405       .  S
Zr1929     O1936   2.398       .  S
Zr1930     O1956   2.435       .  S
Zr1930     O1957   2.434       .  S
Zr1930     O1932   2.435       .  S
Zr1930     O1933   2.396       .  S
Zr1930     O1934   2.432       .  S
O1931      H1968   0.990       .  S
O1932      H1963   0.990       .  S
O1932      H1977   0.990       .  S
O1934      H1960   0.966       .  S
O1935     Zr1945   2.357       .  S
O1936     Zr1945   2.374       .  S
O1936      H1961   0.965       .  S
C1937      C2176   1.488       .  S
C1938      C2188   1.501       .  S
C1939      C2164   1.443       .  S
O1940      H1976   0.990       .  S
O1941      C1943   1.279       .  A
O1942      C1943   1.300       .  A
C1943      C2128   1.494       .  S
O1944     Zr1945   2.440       .  S
O1944      H1973   0.990       .  S
Zr1945     O1948   2.435       .  S
Zr1945     O1949   2.439       .  S
Zr1945     O1950   2.452       .  S
O1946      C1951   1.283       .  A
O1947      H1964   0.990       .  S
O1947      H1979   0.989       .  S
O1948      H1965   0.990       .  S
O1949      H1969   0.990       .  S
O1949      H1978   0.990       .  S
O1950      C1951   1.289       .  A
C1951      C2488   1.481       .  S
O1952      H1971   0.990       .  S
O1952      H1975   0.990       .  S
O1953      H1967   0.990       .  S
O1953      H1974   0.990       .  S
O1954      C1958   1.287       .  A
O1955      C1958   1.286       .  A
O1956      H1966   0.990       .  S
O1957      H1970   0.990       .  S
C1958      C2932   1.466       .  S
Zr1981     O1982   2.437       .  S
Zr1981     O1983   2.435       .  S
Zr1981     O1984   2.424       .  S
Zr1981     O1987   2.438       .  S
Zr1981     O1989   2.370       .  S
Zr1981     O1990   2.384       .  S
Zr1981     O1991   2.408       .  S
Zr1981     O1992   2.386       .  S
O1982      H2038   0.990       .  S
O1982      H2046   0.990       .  S
O1983      C2003   1.283       .  A
O1984      C2005   1.282       .  A
O1985     Zr1995   2.461       .  S
O1985      C2004   1.288       .  A
O1986     Zr1994   2.395       .  S
O1986      C2005   1.272       .  A
O1987      C2004   1.288       .  A
O1988     Zr1996   2.468       .  S
O1988      C2003   1.289       .  A
O1989     Zr1994   2.386       .  S
O1989     Zr1996   2.355       .  S
O1990     Zr1995   2.408       .  S
O1990     Zr1996   2.383       .  S
O1990      H2025   0.966       .  S
O1991     Zr1994   2.404       .  S
O1991     Zr2011   2.410       .  S
O1991      H2028   0.966       .  S
O1992     Zr1995   2.384       .  S
O1992     Zr2011   2.372       .  S
Zr1993     O2018   2.436       .  S
Zr1993     O2012   2.431       .  S
Zr1993     O2020   2.402       .  S
Zr1993     O2008   2.474       .  S
Zr1993     O1999   2.420       .  S
Zr1993     O2000   2.417       .  S
Zr1993     O2001   2.363       .  S
Zr1993     O2002   2.390       .  S
Zr1994     O2013   2.438       .  S
Zr1994     O2006   2.433       .  S
Zr1994     O2007   2.417       .  S
Zr1994     O2000   2.389       .  S
Zr1994     O2001   2.376       .  S
Zr1995     O1997   2.435       .  S
Zr1995     O2019   2.437       .  S
Zr1995     O2021   2.455       .  S
Zr1995     O1999   2.391       .  S
Zr1995     O2002   2.389       .  S
Zr1996     O2022   2.435       .  S
Zr1996     O2023   2.434       .  S
Zr1996     O1998   2.436       .  S
Zr1996     O1999   2.404       .  S
Zr1996     O2000   2.424       .  S
O1997      H2034   0.990       .  S
O1998      H2029   0.990       .  S
O1998      H2043   0.990       .  S
O2000      H2026   0.966       .  S
O2001     Zr2011   2.361       .  S
O2002     Zr2011   2.381       .  S
O2002      H2027   0.965       .  S
C2003      C2125   1.492       .  S
C2004      C2140   1.498       .  S
C2005      C2113   1.466       .  S
O2006      H2042   0.990       .  S
O2007      C2009   1.276       .  A
O2008      C2009   1.285       .  A
C2009      C2272   1.507       .  S
O2010     Zr2011   2.439       .  S
O2010      H2039   0.990       .  S
Zr2011     O2014   2.436       .  S
Zr2011     O2015   2.440       .  S
Zr2011     O2016   2.427       .  S
O2012      C2017   1.286       .  A
O2013      H2030   0.989       .  S
O2013      H2045   0.990       .  S
O2014      H2031   0.990       .  S
O2015      H2035   0.990       .  S
O2015      H2044   0.990       .  S
O2016      C2017   1.281       .  A
C2017      C3136   1.496       .  S
O2018      H2037   0.990       .  S
O2018      H2041   0.990       .  S
O2019      H2033   0.990       .  S
O2019      H2040   0.990       .  S
O2020      C2024   1.281       .  A
O2021      C2024   1.290       .  A
O2022      H2032   0.990       .  S
O2023      H2036   0.990       .  S
C2024      C2476   1.482       .  S
Zr2047     O2048   2.441       .  S
Zr2047     O2049   2.444       .  S
Zr2047     O2050   2.423       .  S
Zr2047     O2053   2.446       .  S
Zr2047     O2055   2.370       .  S
Zr2047     O2056   2.381       .  S
Zr2047     O2057   2.414       .  S
Zr2047     O2058   2.384       .  S
O2048      H2104   0.990       .  S
O2048      H2112   0.990       .  S
O2049      C2069   1.285       .  A
O2050      C2071   1.283       .  A
O2051     Zr2061   2.431       .  S
O2051      C2070   1.282       .  A
O2052     Zr2060   2.388       .  S
O2052      C2071   1.274       .  A
O2053      C2070   1.289       .  A
O2054     Zr2062   2.460       .  S
O2054      C2069   1.287       .  A
O2055     Zr2060   2.380       .  S
O2055     Zr2062   2.359       .  S
O2056     Zr2061   2.405       .  S
O2056     Zr2062   2.387       .  S
O2056      H2091   0.966       .  S
O2057     Zr2060   2.398       .  S
O2057     Zr2077   2.411       .  S
O2057      H2094   0.966       .  S
O2058     Zr2061   2.375       .  S
O2058     Zr2077   2.373       .  S
Zr2059     O2084   2.439       .  S
Zr2059     O2078   2.450       .  S
Zr2059     O2086   2.443       .  S
Zr2059     O2074   2.495       .  S
Zr2059     O2065   2.417       .  S
Zr2059     O2066   2.421       .  S
Zr2059     O2067   2.368       .  S
Zr2059     O2068   2.391       .  S
Zr2060     O2079   2.438       .  S
Zr2060     O2072   2.435       .  S
Zr2060     O2073   2.403       .  S
Zr2060     O2066   2.387       .  S
Zr2060     O2067   2.378       .  S
Zr2061     O2063   2.436       .  S
Zr2061     O2085   2.438       .  S
Zr2061     O2087   2.421       .  S
Zr2061     O2065   2.384       .  S
Zr2061     O2068   2.386       .  S
Zr2062     O2088   2.436       .  S
Zr2062     O2089   2.435       .  S
Zr2062     O2064   2.436       .  S
Zr2062     O2065   2.396       .  S
Zr2062     O2066   2.425       .  S
O2063      H2100   0.990       .  S
O2064      H2095   0.990       .  S
O2064      H2109   0.990       .  S
O2066      H2092   0.966       .  S
O2067     Zr2077   2.362       .  S
O2068     Zr2077   2.384       .  S
O2068      H2093   0.965       .  S
C2069      C2248   1.495       .  S
C2070      C2260   1.475       .  S
C2071      C2116   1.477       .  S
O2072      H2108   0.990       .  S
O2073      C2075   1.272       .  A
O2074      C2075   1.293       .  A
C2075      C2152   1.511       .  S
O2076     Zr2077   2.441       .  S
O2076      H2105   0.990       .  S
Zr2077     O2080   2.436       .  S
Zr2077     O2081   2.432       .  S
Zr2077     O2082   2.434       .  S
O2078      C2083   1.289       .  A
O2079      H2096   0.990       .  S
O2079      H2111   0.990       .  S
O2080      H2097   0.990       .  S
O2081      H2101   0.989       .  S
O2081      H2110   0.990       .  S
O2082      C2083   1.284       .  A
C2083      C2992   1.497       .  S
O2084      H2103   0.990       .  S
O2084      H2107   0.990       .  S
O2085      H2099   0.990       .  S
O2085      H2106   0.990       .  S
O2086      C2090   1.289       .  A
O2087      C2090   1.284       .  A
O2088      H2098   0.990       .  S
O2089      H2102   0.990       .  S
C2090      C2332   1.479       .  S
C2113      C2114   1.400       .  A
C2113      C2118   1.413       .  A
C2114      C2115   1.389       .  A
C2114      H2123   1.084       .  S
C2115      C2116   1.417       .  A
C2115      S2119   1.803       .  S
C2116      C2117   1.404       .  A
C2117      C2118   1.394       .  A
C2117      H2124   1.082       .  S
C2118      S2120   1.808       .  S
S2119      H2122   1.408       .  S
S2120      H2121   1.407       .  S
C2125      C2126   1.402       .  A
C2125      C2130   1.415       .  A
C2126      C2127   1.410       .  A
C2126      H2135   1.084       .  S
C2127      C2128   1.424       .  A
C2127      S2131   1.807       .  S
C2128      C2129   1.406       .  A
C2129      C2130   1.408       .  A
C2129      H2136   1.084       .  S
C2130      S2132   1.804       .  S
S2131      H2134   1.397       .  S
S2132      H2133   1.405       .  S
C2137      C2138   1.404       .  A
C2137      C2142   1.419       .  A
C2138      C2139   1.384       .  A
C2138      H2147   1.079       .  S
C2139      C2140   1.409       .  A
C2139      S2143   1.805       .  S
C2140      C2141   1.416       .  A
C2141      C2142   1.421       .  A
C2141      H2148   1.083       .  S
C2142      S2144   1.800       .  S
S2143      H2146   1.408       .  S
S2144      H2145   1.407       .  S
C2149      C2150   1.402       .  A
C2149      C2154   1.416       .  A
C2150      C2151   1.398       .  A
C2150      H2159   1.082       .  S
C2151      C2152   1.430       .  A
C2151      S2155   1.816       .  S
C2152      C2153   1.413       .  A
C2153      C2154   1.415       .  A
C2153      H2160   1.083       .  S
C2154      S2156   1.797       .  S
S2155      H2158   1.407       .  S
S2156      H2157   1.407       .  S
C2161      C2162   1.405       .  A
C2161      C2166   1.402       .  A
C2162      C2163   1.404       .  A
C2162      H2171   1.084       .  S
C2163      C2164   1.408       .  A
C2163      S2167   1.802       .  S
C2164      C2165   1.394       .  A
C2165      C2166   1.372       .  A
C2165      H2172   1.078       .  S
C2166      S2168   1.811       .  S
S2167      H2170   1.405       .  S
S2168      H2169   1.407       .  S
C2173      C2174   1.405       .  A
C2173      C2178   1.414       .  A
C2174      C2175   1.397       .  A
C2174      H2183   1.085       .  S
C2175      C2176   1.413   1_554  A
C2175      S2179   1.806       .  S
C2176      C2177   1.409       .  A
C2177      C2178   1.412   1_556  A
C2177      H2184   1.084       .  S
C2178      S2180   1.801   1_554  S
S2179      H2182   1.407       .  S
S2180      H2181   1.405   1_556  S
C2185      C2186   1.417       .  A
C2185      C2190   1.412       .  A
C2186      C2187   1.421       .  A
C2186      H2195   1.083       .  S
C2187      C2188   1.418       .  A
C2187      S2191   1.800       .  S
C2188      C2189   1.400       .  A
C2189      C2190   1.382       .  A
C2189      H2196   1.071       .  S
C2190      S2192   1.808       .  S
S2191      H2194   1.406       .  S
S2192      H2193   1.408       .  S
C2197      C2198   1.404       .  A
C2197      C2202   1.417       .  A
C2198      C2199   1.409       .  A
C2198      H2207   1.084       .  S
C2199      C2200   1.419       .  A
C2199      S2203   1.804       .  S
C2200      C2201   1.405       .  A
C2201      C2202   1.409       .  A
C2201      H2208   1.084       .  S
C2202      S2204   1.803       .  S
S2203      H2206   1.402       .  S
S2204      H2205   1.403       .  S
C2209      C2210   1.407       .  A
C2209      C2214   1.408       .  A
C2210      C2211   1.395       .  A
C2210      H2219   1.082       .  S
C2211      C2212   1.408       .  A
C2211      S2215   1.807       .  S
C2212      C2213   1.407       .  A
C2213      C2214   1.391       .  A
C2213      H2220   1.084       .  S
C2214      S2216   1.803       .  S
S2215      H2218   1.407       .  S
S2216      H2217   1.407       .  S
C2221      C2222   1.403       .  A
C2221      C2226   1.412       .  A
C2222      C2223   1.392       .  A
C2222      H2231   1.085       .  S
C2223      C2224   1.412       .  A
C2223      S2227   1.806       .  S
C2224      C2225   1.410       .  A
C2225      C2226   1.409       .  A
C2225      H2232   1.084       .  S
C2226      S2228   1.803       .  S
S2227      H2230   1.407       .  S
S2228      H2229   1.405       .  S
C2233      C2234   1.407       .  A
C2233      C2238   1.417       .  A
C2234      C2235   1.415       .  A
C2234      H2243   1.083       .  S
C2235      C2236   1.419       .  A
C2235      S2239   1.800       .  S
C2236      C2237   1.402       .  A
C2237      C2238   1.396       .  A
C2237      H2244   1.085       .  S
C2238      S2240   1.805       .  S
S2239      H2242   1.407       .  S
S2240      H2241   1.401       .  S
C2245      C2246   1.401       .  A
C2245      C2250   1.419       .  A
C2246      C2247   1.399       .  A
C2246      H2255   1.084       .  S
C2247      C2248   1.413       .  A
C2247      S2251   1.794       .  S
C2248      C2249   1.406       .  A
C2249      C2250   1.415       .  A
C2249      H2256   1.083       .  S
C2250      S2252   1.795       .  S
S2251      H2254   1.406       .  S
S2252      H2253   1.405       .  S
C2257      C2258   1.399       .  A
C2257      C2262   1.412       .  A
C2258      C2259   1.406       .  A
C2258      H2267   1.084       .  S
C2259      C2260   1.419       .  A
C2259      S2263   1.796       .  S
C2260      C2261   1.395       .  A
C2261      C2262   1.392       .  A
C2261      H2268   1.084       .  S
C2262      S2264   1.802       .  S
S2263      H2266   1.405       .  S
S2264      H2265   1.407       .  S
C2269      C2270   1.410       .  A
C2269      C2274   1.416       .  A
C2270      C2271   1.417       .  A
C2270      H2279   1.083       .  S
C2271      C2272   1.421       .  A
C2271      S2275   1.800       .  S
C2272      C2273   1.406       .  A
C2273      C2274   1.396       .  A
C2273      H2280   1.080       .  S
C2274      S2276   1.807       .  S
S2275      H2278   1.407       .  S
S2276      H2277   1.407       .  S
C2281      C2282   1.396       .  A
C2281      C2286   1.413       .  A
C2282      C2283   1.370       .  A
C2282      H2291   1.081       .  S
C2283      C2284   1.400       .  A
C2283      S2287   1.803       .  S
C2284      C2285   1.401       .  A
C2285      C2286   1.400       .  A
C2285      H2292   1.084       .  S
C2286      S2288   1.806       .  S
S2287      H2290   1.404       .  S
S2288      H2289   1.400       .  S
C2293      C2294   1.400       .  A
C2293      C2298   1.421       .  A
C2294      C2295   1.402       .  A
C2294      H2303   1.084       .  S
C2295      C2296   1.416       .  A
C2295      S2299   1.798       .  S
C2296      C2297   1.404       .  A
C2297      C2298   1.411       .  A
C2297      H2304   1.084       .  S
C2298      S2300   1.806       .  S
S2299      H2302   1.402       .  S
S2300      H2301   1.399       .  S
C2305      C2306   1.404       .  A
C2305      C2310   1.416       .  A
C2306      C2307   1.391       .  A
C2306      H2315   1.084       .  S
C2307      C2308   1.408       .  A
C2307      S2311   1.803       .  S
C2308      C2309   1.402       .  A
C2309      C2310   1.404       .  A
C2309      H2316   1.084       .  S
C2310      S2312   1.799       .  S
S2311      H2314   1.406       .  S
S2312      H2313   1.407       .  S
C2317      C2318   1.396       .  A
C2317      C2322   1.403       .  A
C2318      C2319   1.391       .  A
C2318      H2327   1.083       .  S
C2319      C2320   1.408       .  A
C2319      S2323   1.805   1_545  S
C2320      C2321   1.396       .  A
C2321      C2322   1.381       .  A
C2321      H2328   1.084       .  S
C2322      S2324   1.810       .  S
S2323      H2326   1.407       .  S
S2324      H2325   1.407       .  S
C2329      C2330   1.396       .  A
C2329      C2334   1.412       .  A
C2330      C2331   1.395       .  A
C2330      H2339   1.085       .  S
C2331      C2332   1.419       .  A
C2331      S2335   1.804       .  S
C2332      C2333   1.404       .  A
C2333      C2334   1.401       .  A
C2333      H2340   1.084       .  S
C2334      S2336   1.805       .  S
S2335      H2338   1.408       .  S
S2336      H2337   1.405       .  S
C2341      C2342   1.408       .  A
C2341      C2346   1.420       .  A
C2342      C2343   1.399       .  A
C2342      H2351   1.084       .  S
C2343      C2344   1.409       .  A
C2343      S2347   1.803       .  S
C2344      C2345   1.399       .  A
C2345      C2346   1.400       .  A
C2345      H2352   1.084       .  S
C2346      S2348   1.798       .  S
S2347      H2350   1.406       .  S
S2348      H2349   1.407       .  S
C2353      C2354   1.405       .  A
C2353      C2358   1.424       .  A
C2354      C2355   1.394       .  A
C2354      H2363   1.083       .  S
C2355      C2356   1.420   1_554  A
C2355      S2359   1.799       .  S
C2356      C2357   1.412       .  A
C2357      C2358   1.421   1_556  A
C2357      H2364   1.083       .  S
C2358      S2360   1.800       .  S
S2359      H2362   1.402   1_554  S
S2360      H2361   1.407       .  S
C2365      C2366   1.411       .  A
C2365      C2370   1.415       .  A
C2366      C2367   1.397       .  A
C2366      H2375   1.084       .  S
C2367      C2368   1.408       .  A
C2367      S2371   1.801       .  S
C2368      C2369   1.405       .  A
C2369      C2370   1.402       .  A
C2369      H2376   1.084       .  S
C2370      S2372   1.802       .  S
S2371      H2374   1.406       .  S
S2372      H2373   1.407       .  S
C2377      C2378   1.411       .  A
C2377      C2382   1.402       .  A
C2378      C2379   1.404       .  A
C2378      H2387   1.084       .  S
C2379      C2380   1.405       .  A
C2379      S2383   1.802       .  S
C2380      C2381   1.411       .  A
C2381      C2382   1.396       .  A
C2381      H2388   1.081       .  S
C2382      S2384   1.803       .  S
S2383      H2386   1.406       .  S
S2384      H2385   1.407       .  S
C2389      C2390   1.411       .  A
C2389      C2394   1.418       .  A
C2390      C2391   1.417       .  A
C2390      H2399   1.084       .  S
C2391      C2392   1.417       .  A
C2391      S2395   1.803       .  S
C2392      C2393   1.404       .  A
C2393      C2394   1.402       .  A
C2393      H2400   1.084       .  S
C2394      S2396   1.805       .  S
S2395      H2398   1.405       .  S
S2396      H2397   1.407       .  S
C2401      C2402   1.402       .  A
C2401      C2406   1.418       .  A
C2402      C2403   1.394   1_565  A
C2402      H2411   1.083       .  S
C2403      C2404   1.415       .  A
C2403      S2407   1.808       .  S
C2404      C2405   1.401       .  A
C2405      C2406   1.394   1_545  A
C2405      H2412   1.083       .  S
C2406      S2408   1.809       .  S
S2407      H2410   1.407   1_545  S
S2408      H2409   1.407   1_565  S
C2413      C2414   1.405       .  A
C2413      C2418   1.411       .  A
C2414      C2415   1.402       .  A
C2414      H2423   1.084       .  S
C2415      C2416   1.410       .  A
C2415      S2419   1.805       .  S
C2416      C2417   1.399       .  A
C2417      C2418   1.392       .  A
C2417      H2424   1.085       .  S
C2418      S2420   1.806       .  S
S2419      H2422   1.404       .  S
S2420      H2421   1.406       .  S
C2425      C2426   1.405       .  A
C2425      C2430   1.419       .  A
C2426      C2427   1.401       .  A
C2426      H2435   1.084       .  S
C2427      C2428   1.417       .  A
C2427      S2431   1.805       .  S
C2428      C2429   1.410       .  A
C2429      C2430   1.417       .  A
C2429      H2436   1.083       .  S
C2430      S2432   1.801       .  S
S2431      H2434   1.407       .  S
S2432      H2433   1.406       .  S
C2437      C2438   1.408       .  A
C2437      C2442   1.418       .  A
C2438      C2439   1.392       .  A
C2438      H2447   1.083       .  S
C2439      C2440   1.416       .  A
C2439      S2443   1.808       .  S
C2440      C2441   1.415       .  A
C2441      C2442   1.417       .  A
C2441      H2448   1.083       .  S
C2442      S2444   1.800       .  S
S2443      H2446   1.409       .  S
S2444      H2445   1.407       .  S
C2449      C2450   1.411       .  A
C2449      C2454   1.412       .  A
C2450      C2451   1.416       .  A
C2450      H2459   1.083       .  S
C2451      C2452   1.419       .  A
C2451      S2455   1.798       .  S
C2452      C2453   1.407       .  A
C2453      C2454   1.395       .  A
C2453      H2460   1.084       .  S
C2454      S2456   1.796   1_545  S
S2455      H2458   1.407       .  S
S2456      H2457   1.406       .  S
C2461      C2462   1.399       .  A
C2461      C2466   1.402       .  A
C2462      C2463   1.387       .  A
C2462      H2471   1.080       .  S
C2463      C2464   1.401       .  A
C2463      S2467   1.793       .  S
C2464      C2465   1.396       .  A
C2465      C2466   1.378       .  A
C2465      H2472   1.084       .  S
C2466      S2468   1.797       .  S
S2467      H2470   1.405       .  S
S2468      H2469   1.406       .  S
C2473      C2474   1.400       .  A
C2473      C2478   1.411       .  A
C2474      C2475   1.401       .  A
C2474      H2483   1.083       .  S
C2475      C2476   1.418       .  A
C2475      S2479   1.810       .  S
C2476      C2477   1.405       .  A
C2477      C2478   1.398       .  A
C2477      H2484   1.084       .  S
C2478      S2480   1.799       .  S
S2479      H2482   1.407       .  S
S2480      H2481   1.405       .  S
C2485      C2486   1.408       .  A
C2485      C2490   1.420       .  A
C2486      C2487   1.402       .  A
C2486      H2495   1.083       .  S
C2487      C2488   1.415       .  A
C2487      S2491   1.804       .  S
C2488      C2489   1.402       .  A
C2489      C2490   1.403       .  A
C2489      H2496   1.083       .  S
C2490      S2492   1.811       .  S
S2491      H2494   1.396       .  S
S2492      H2493   1.407       .  S
C2497      C2498   1.415       .  A
C2497      C2502   1.419       .  A
C2498      C2499   1.419       .  A
C2498      H2507   1.083       .  S
C2499      C2500   1.420       .  A
C2499      S2503   1.796       .  S
C2500      C2501   1.404       .  A
C2501      C2502   1.392       .  A
C2501      H2508   1.082       .  S
C2502      S2504   1.808       .  S
S2503      H2506   1.407       .  S
S2504      H2505   1.408       .  S
C2509      C2510   1.403       .  A
C2509      C2514   1.418       .  A
C2510      C2511   1.412       .  A
C2510      H2519   1.083       .  S
C2511      C2512   1.420       .  A
C2511      S2515   1.801       .  S
C2512      C2513   1.399       .  A
C2513      C2514   1.406       .  A
C2513      H2520   1.083       .  S
C2514      S2516   1.806       .  S
S2515      H2518   1.399       .  S
S2516      H2517   1.407       .  S
C2521      C2522   1.409       .  A
C2521      C2526   1.415       .  A
C2522      C2523   1.410       .  A
C2522      H2531   1.084       .  S
C2523      C2524   1.415       .  A
C2523      S2527   1.804       .  S
C2524      C2525   1.403       .  A
C2525      C2526   1.399       .  A
C2525      H2532   1.085       .  S
C2526      S2528   1.805       .  S
S2527      H2530   1.405       .  S
S2528      H2529   1.407       .  S
C2533      C2534   1.412       .  A
C2533      C2538   1.417       .  A
C2534      C2535   1.407       .  A
C2534      H2543   1.084       .  S
C2535      C2536   1.409       .  A
C2535      S2539   1.803       .  S
C2536      C2537   1.399       .  A
C2537      C2538   1.390       .  A
C2537      H2544   1.085       .  S
C2538      S2540   1.805       .  S
S2539      H2542   1.405       .  S
S2540      H2541   1.404       .  S
C2545      C2546   1.413       .  A
C2545      C2550   1.411       .  A
C2546      C2547   1.411       .  A
C2546      H2555   1.084       .  S
C2547      C2548   1.412       .  A
C2547      S2551   1.802       .  S
C2548      C2549   1.406       .  A
C2549      C2550   1.394       .  A
C2549      H2556   1.084       .  S
C2550      S2552   1.805       .  S
S2551      H2554   1.405       .  S
S2552      H2553   1.407       .  S
C2557      C2558   1.404       .  A
C2557      C2562   1.418       .  A
C2558      C2559   1.412       .  A
C2558      H2567   1.083       .  S
C2559      C2560   1.420       .  A
C2559      S2563   1.800       .  S
C2560      C2561   1.399       .  A
C2561      C2562   1.408       .  A
C2561      H2568   1.083       .  S
C2562      S2564   1.803       .  S
S2563      H2566   1.399       .  S
S2564      H2565   1.407       .  S
C2569      C2570   1.403       .  A
C2569      C2574   1.413       .  A
C2570      C2571   1.394       .  A
C2570      H2579   1.083       .  S
C2571      C2572   1.414   1_565  A
C2571      S2575   1.809   1_565  S
C2572      C2573   1.403       .  A
C2573      C2574   1.393   1_545  A
C2573      H2580   1.083       .  S
C2574      S2576   1.808       .  S
S2575      H2578   1.407   1_545  S
S2576      H2577   1.407   1_565  S
C2581      C2582   1.401       .  A
C2581      C2586   1.413       .  A
C2582      C2583   1.398       .  A
C2582      H2591   1.080       .  S
C2583      C2584   1.410       .  A
C2583      S2587   1.804       .  S
C2584      C2585   1.409       .  A
C2585      C2586   1.409       .  A
C2585      H2592   1.084       .  S
C2586      S2588   1.804       .  S
S2587      H2590   1.407       .  S
S2588      H2589   1.404   1_545  S
C2593      C2594   1.408       .  A
C2593      C2598   1.421       .  A
C2594      C2595   1.390       .  A
C2594      H2603   1.083       .  S
C2595      C2596   1.409   1_655  A
C2595      S2599   1.801   1_655  S
C2596      C2597   1.402   1_455  A
C2597      C2598   1.404       .  A
C2597      H2604   1.084       .  S
C2598      S2600   1.801       .  S
S2599      H2602   1.404       .  S
S2600      H2601   1.406       .  S
C2605      C2606   1.404       .  A
C2605      C2610   1.416   1_545  A
C2606      C2607   1.396   1_545  A
C2606      H2615   1.083       .  S
C2607      C2608   1.415       .  A
C2607      S2611   1.809       .  S
C2608      C2609   1.404       .  A
C2609      C2610   1.396       .  A
C2609      H2616   1.083       .  S
C2610      S2612   1.809   1_565  S
S2611      H2614   1.407   1_565  S
S2612      H2613   1.407   1_545  S
C2617      C2618   1.410       .  A
C2617      C2622   1.417       .  A
C2618      C2619   1.407       .  A
C2618      H2627   1.083       .  S
C2619      C2620   1.411   1_655  A
C2619      S2623   1.803       .  S
C2620      C2621   1.399   1_455  A
C2621      C2622   1.394       .  A
C2621      H2628   1.085   1_655  S
C2622      S2624   1.803       .  S
S2623      H2626   1.405   1_655  S
S2624      H2625   1.408       .  S
C2629      C2630   1.402       .  A
C2629      C2634   1.414       .  A
C2630      C2631   1.402       .  A
C2630      H2639   1.084       .  S
C2631      C2632   1.413       .  A
C2631      S2635   1.805       .  S
C2632      C2633   1.396       .  A
C2633      C2634   1.391       .  A
C2633      H2640   1.085       .  S
C2634      S2636   1.806       .  S
S2635      H2638   1.404       .  S
S2636      H2637   1.406       .  S
C2641      C2642   1.409       .  A
C2641      C2646   1.416       .  A
C2642      C2643   1.410       .  A
C2642      H2651   1.080       .  S
C2643      C2644   1.413       .  A
C2643      S2647   1.804       .  S
C2644      C2645   1.404       .  A
C2645      C2646   1.401       .  A
C2645      H2652   1.084       .  S
C2646      S2648   1.805       .  S
S2647      H2650   1.405       .  S
S2648      H2649   1.407       .  S
C2653      C2654   1.399   1_655  A
C2653      C2658   1.410       .  A
C2654      C2655   1.390       .  A
C2654      H2663   1.085   1_455  S
C2655      C2656   1.412       .  A
C2655      S2659   1.807       .  S
C2656      C2657   1.405       .  A
C2657      C2658   1.402   1_455  A
C2657      H2664   1.084       .  S
C2658      S2660   1.805       .  S
S2659      H2662   1.405       .  S
S2660      H2661   1.405       .  S
C2665      C2666   1.413       .  A
C2665      C2670   1.409       .  A
C2666      C2667   1.415       .  A
C2666      H2675   1.083       .  S
C2667      C2668   1.418       .  A
C2667      S2671   1.800       .  S
C2668      C2669   1.401       .  A
C2669      C2670   1.380       .  A
C2669      H2676   1.080       .  S
C2670      S2672   1.808       .  S
S2671      H2674   1.407       .  S
S2672      H2673   1.408       .  S
C2677      C2678   1.402       .  A
C2677      C2682   1.416       .  A
C2678      C2679   1.399       .  A
C2678      H2687   1.085       .  S
C2679      C2680   1.415       .  A
C2679      S2683   1.804       .  S
C2680      C2681   1.408       .  A
C2681      C2682   1.411       .  A
C2681      H2688   1.084       .  S
C2682      S2684   1.804       .  S
S2683      H2686   1.407       .  S
S2684      H2685   1.405   1_545  S
C2689      C2690   1.396       .  A
C2689      C2694   1.412       .  A
C2690      C2691   1.367       .  A
C2690      H2699   1.083       .  S
C2691      C2692   1.404       .  A
C2691      S2695   1.803       .  S
C2692      C2693   1.402       .  A
C2693      C2694   1.402       .  A
C2693      H2700   1.084       .  S
C2694      S2696   1.802   1_565  S
S2695      H2698   1.402       .  S
S2696      H2697   1.404       .  S
C2701      C2702   1.402       .  A
C2701      C2706   1.408       .  A
C2702      C2703   1.403       .  A
C2702      H2711   1.084       .  S
C2703      C2704   1.418       .  A
C2703      S2707   1.800       .  S
C2704      C2705   1.406       .  A
C2705      C2706   1.391       .  A
C2705      H2712   1.084       .  S
C2706      S2708   1.804       .  S
S2707      H2710   1.407       .  S
S2708      H2709   1.406       .  S
C2713      C2714   1.407       .  A
C2713      C2718   1.415       .  A
C2714      C2715   1.402       .  A
C2714      H2723   1.084       .  S
C2715      C2716   1.414       .  A
C2715      S2719   1.804       .  S
C2716      C2717   1.409       .  A
C2717      C2718   1.412       .  A
C2717      H2724   1.084       .  S
C2718      S2720   1.798       .  S
S2719      H2722   1.407       .  S
S2720      H2721   1.405       .  S
C2725      C2726   1.399       .  A
C2725      C2730   1.411       .  A
C2726      C2727   1.394   1_655  A
C2726      H2735   1.085       .  S
C2727      C2728   1.413       .  A
C2727      S2731   1.806       .  S
C2728      C2729   1.406       .  A
C2729      C2730   1.405   1_455  A
C2729      H2736   1.083       .  S
C2730      S2732   1.805       .  S
S2731      H2734   1.405       .  S
S2732      H2733   1.404       .  S
C2737      C2738   1.408       .  A
C2737      C2742   1.408       .  A
C2738      C2739   1.406       .  A
C2738      H2747   1.084       .  S
C2739      C2740   1.411       .  A
C2739      S2743   1.803       .  S
C2740      C2741   1.404       .  A
C2741      C2742   1.393       .  A
C2741      H2748   1.085       .  S
C2742      S2744   1.804       .  S
S2743      H2746   1.405       .  S
S2744      H2745   1.407       .  S
C2749      C2750   1.409       .  A
C2749      C2754   1.411       .  A
C2750      C2751   1.416       .  A
C2750      H2759   1.083       .  S
C2751      C2752   1.418       .  A
C2751      S2755   1.800       .  S
C2752      C2753   1.402       .  A
C2753      C2754   1.394       .  A
C2753      H2760   1.083       .  S
C2754      S2756   1.801       .  S
S2755      H2758   1.406       .  S
S2756      H2757   1.406       .  S
C2761      C2762   1.400       .  A
C2761      C2766   1.420       .  A
C2762      C2763   1.375       .  A
C2762      H2771   1.082       .  S
C2763      C2764   1.401       .  A
C2763      S2767   1.802       .  S
C2764      C2765   1.396       .  A
C2765      C2766   1.398       .  A
C2765      H2772   1.083       .  S
C2766      S2768   1.806   1_545  S
S2767      H2770   1.408       .  S
S2768      H2769   1.393       .  S
C2773      C2774   1.403       .  A
C2773      C2778   1.412       .  A
C2774      C2775   1.392       .  A
C2774      H2783   1.085       .  S
C2775      C2776   1.413       .  A
C2775      S2779   1.805       .  S
C2776      C2777   1.411       .  A
C2777      C2778   1.408       .  A
C2777      H2784   1.084       .  S
C2778      S2780   1.802       .  S
S2779      H2782   1.407       .  S
S2780      H2781   1.405       .  S
C2785      C2786   1.403       .  A
C2785      C2790   1.414       .  A
C2786      C2787   1.410       .  A
C2786      H2795   1.084       .  S
C2787      C2788   1.421       .  A
C2787      S2791   1.808       .  S
C2788      C2789   1.405       .  A
C2789      C2790   1.405       .  A
C2789      H2796   1.084       .  S
C2790      S2792   1.804       .  S
S2791      H2794   1.400       .  S
S2792      H2793   1.405       .  S
C2797      C2798   1.402       .  A
C2797      C2802   1.419       .  A
C2798      C2799   1.394       .  A
C2798      H2807   1.084       .  S
C2799      C2800   1.412       .  A
C2799      S2803   1.799       .  S
C2800      C2801   1.401       .  A
C2801      C2802   1.406       .  A
C2801      H2808   1.084       .  S
C2802      S2804   1.797       .  S
S2803      H2806   1.401       .  S
S2804      H2805   1.407       .  S
C2809      C2810   1.406       .  A
C2809      C2814   1.412       .  A
C2810      C2811   1.412       .  A
C2810      H2819   1.084       .  S
C2811      C2812   1.418       .  A
C2811      S2815   1.800       .  S
C2812      C2813   1.407       .  A
C2813      C2814   1.399       .  A
C2813      H2820   1.084       .  S
C2814      S2816   1.805       .  S
S2815      H2818   1.406       .  S
S2816      H2817   1.406       .  S
C2821      C2822   1.406       .  A
C2821      C2826   1.407       .  A
C2822      C2823   1.400       .  A
C2822      H2831   1.084       .  S
C2823      C2824   1.407       .  A
C2823      S2827   1.803       .  S
C2824      C2825   1.405       .  A
C2825      C2826   1.400       .  A
C2825      H2832   1.084       .  S
C2826      S2828   1.802       .  S
S2827      H2830   1.406       .  S
S2828      H2829   1.407       .  S
C2833      C2834   1.402       .  A
C2833      C2838   1.416       .  A
C2834      C2835   1.402       .  A
C2834      H2843   1.085       .  S
C2835      C2836   1.420       .  A
C2835      S2839   1.805       .  S
C2836      C2837   1.411       .  A
C2837      C2838   1.415       .  A
C2837      H2844   1.083       .  S
C2838      S2840   1.803       .  S
S2839      H2842   1.407       .  S
S2840      H2841   1.405       .  S
C2845      C2846   1.401       .  A
C2845      C2850   1.415       .  A
C2846      C2847   1.394       .  A
C2846      H2855   1.083       .  S
C2847      C2848   1.417   1_565  A
C2847      S2851   1.809   1_565  S
C2848      C2849   1.403       .  A
C2849      C2850   1.395   1_545  A
C2849      H2856   1.083       .  S
C2850      S2852   1.809       .  S
S2851      H2854   1.407   1_545  S
S2852      H2853   1.407   1_565  S
C2857      C2858   1.406       .  A
C2857      C2862   1.421       .  A
C2858      C2859   1.405       .  A
C2858      H2867   1.084       .  S
C2859      C2860   1.413       .  A
C2859      S2863   1.802       .  S
C2860      C2861   1.394       .  A
C2861      C2862   1.393       .  A
C2861      H2868   1.084       .  S
C2862      S2864   1.800       .  S
S2863      H2866   1.406       .  S
S2864      H2865   1.405       .  S
C2869      C2870   1.409       .  A
C2869      C2874   1.414       .  A
C2870      C2871   1.412       .  A
C2870      H2879   1.083       .  S
C2871      C2872   1.416   1_554  A
C2871      S2875   1.804       .  S
C2872      C2873   1.402       .  A
C2873      C2874   1.399   1_556  A
C2873      H2880   1.083       .  S
C2874      S2876   1.804       .  S
S2875      H2878   1.404   1_544  S
S2876      H2877   1.407       .  S
C2881      C2882   1.412       .  A
C2881      C2886   1.425       .  A
C2882      C2883   1.410       .  A
C2882      H2891   1.082       .  S
C2883      C2884   1.411       .  A
C2883      S2887   1.806       .  S
C2884      C2885   1.400       .  A
C2885      C2886   1.397       .  A
C2885      H2892   1.082       .  S
C2886      S2888   1.815       .  S
S2887      H2890   1.407       .  S
S2888      H2889   1.407       .  S
C2893      C2894   1.406       .  A
C2893      C2898   1.413       .  A
C2894      C2895   1.402       .  A
C2894      H2903   1.084       .  S
C2895      C2896   1.409       .  A
C2895      S2899   1.805       .  S
C2896      C2897   1.398       .  A
C2897      C2898   1.392       .  A
C2897      H2904   1.085       .  S
C2898      S2900   1.806       .  S
S2899      H2902   1.405       .  S
S2900      H2901   1.406       .  S
C2905      C2906   1.410       .  A
C2905      C2910   1.422       .  A
C2906      C2907   1.402       .  A
C2906      H2915   1.083       .  S
C2907      C2908   1.416       .  A
C2907      S2911   1.802       .  S
C2908      C2909   1.404       .  A
C2909      C2910   1.400       .  A
C2909      H2916   1.084       .  S
C2910      S2912   1.803       .  S
S2911      H2914   1.400       .  S
S2912      H2913   1.404       .  S
C2917      C2918   1.405       .  A
C2917      C2922   1.410       .  A
C2918      C2919   1.388       .  A
C2918      H2927   1.080       .  S
C2919      C2920   1.407       .  A
C2919      S2923   1.804       .  S
C2920      C2921   1.408       .  A
C2921      C2922   1.394       .  A
C2921      H2928   1.084       .  S
C2922      S2924   1.802       .  S
S2923      H2926   1.401       .  S
S2924      H2925   1.400       .  S
C2929      C2930   1.400       .  A
C2929      C2934   1.415       .  A
C2930      C2931   1.394       .  A
C2930      H2939   1.085       .  S
C2931      C2932   1.411       .  A
C2931      S2935   1.803       .  S
C2932      C2933   1.401       .  A
C2933      C2934   1.403       .  A
C2933      H2940   1.084       .  S
C2934      S2936   1.804       .  S
S2935      H2938   1.404       .  S
S2936      H2937   1.406       .  S
C2941      C2942   1.400       .  A
C2941      C2946   1.411       .  A
C2942      C2943   1.395       .  A
C2942      H2951   1.085       .  S
C2943      C2944   1.417       .  A
C2943      S2947   1.804       .  S
C2944      C2945   1.409       .  A
C2945      C2946   1.404       .  A
C2945      H2952   1.084       .  S
C2946      S2948   1.804       .  S
S2947      H2950   1.408       .  S
S2948      H2949   1.406       .  S
C2953      C2954   1.414       .  A
C2953      C2958   1.413       .  A
C2954      C2955   1.412       .  A
C2954      H2963   1.083       .  S
C2955      C2956   1.412       .  A
C2955      S2959   1.802       .  S
C2956      C2957   1.404       .  A
C2957      C2958   1.392       .  A
C2957      H2964   1.081       .  S
C2958      S2960   1.806       .  S
S2959      H2962   1.405       .  S
S2960      H2961   1.407       .  S
C2965      C2966   1.403       .  A
C2965      C2970   1.415       .  A
C2966      C2967   1.400       .  A
C2966      H2975   1.085       .  S
C2967      C2968   1.416       .  A
C2967      S2971   1.805       .  S
C2968      C2969   1.409       .  A
C2969      C2970   1.411       .  A
C2969      H2976   1.084       .  S
C2970      S2972   1.803       .  S
S2971      H2974   1.407       .  S
S2972      H2973   1.406       .  S
C2977      C2978   1.407       .  A
C2977      C2982   1.419       .  A
C2978      C2979   1.397       .  A
C2978      H2987   1.084       .  S
C2979      C2980   1.410       .  A
C2979      S2983   1.805       .  S
C2980      C2981   1.399       .  A
C2981      C2982   1.396       .  A
C2981      H2988   1.085       .  S
C2982      S2984   1.803       .  S
S2983      H2986   1.407       .  S
S2984      H2985   1.408       .  S
C2989      C2990   1.404       .  A
C2989      C2994   1.423   1_655  A
C2990      C2991   1.395   1_655  A
C2990      H2999   1.083       .  S
C2991      C2992   1.419       .  A
C2991      S2995   1.797       .  S
C2992      C2993   1.407       .  A
C2993      C2994   1.408       .  A
C2993      H3000   1.082       .  S
C2994      S2996   1.810       .  S
S2995      H2998   1.408       .  S
S2996      H2997   1.406       .  S
C3001      C3002   1.396       .  A
C3001      C3006   1.407       .  A
C3002      C3003   1.379       .  A
C3002      H3011   1.085       .  S
C3003      C3004   1.405       .  A
C3003      S3007   1.803       .  S
C3004      C3005   1.400       .  A
C3005      C3006   1.389       .  A
C3005      H3012   1.085       .  S
C3006      S3008   1.805       .  S
S3007      H3010   1.406       .  S
S3008      H3009   1.407       .  S
C3013      C3014   1.409       .  A
C3013      C3018   1.416       .  A
C3014      C3015   1.398       .  A
C3014      H3023   1.084       .  S
C3015      C3016   1.408       .  A
C3015      S3019   1.800       .  S
C3016      C3017   1.404       .  A
C3017      C3018   1.401       .  A
C3017      H3024   1.084       .  S
C3018      S3020   1.803       .  S
S3019      H3022   1.404       .  S
S3020      H3021   1.407       .  S
C3025      C3026   1.409       .  A
C3025      C3030   1.414       .  A
C3026      C3027   1.411       .  A
C3026      H3035   1.083       .  S
C3027      C3028   1.414       .  A
C3027      S3031   1.805       .  S
C3028      C3029   1.406       .  A
C3029      C3030   1.408       .  A
C3029      H3036   1.083       .  S
C3030      S3032   1.803       .  S
S3031      H3034   1.404       .  S
S3032      H3033   1.406       .  S
C3037      C3038   1.406       .  A
C3037      C3042   1.418       .  A
C3038      C3039   1.404       .  A
C3038      H3047   1.083       .  S
C3039      C3040   1.408       .  A
C3039      S3043   1.806       .  S
C3040      C3041   1.394       .  A
C3041      C3042   1.390       .  A
C3041      H3048   1.085       .  S
C3042      S3044   1.802       .  S
S3043      H3046   1.407       .  S
S3044      H3045   1.407       .  S
C3049      C3050   1.412       .  A
C3049      C3054   1.404       .  A
C3050      C3051   1.405       .  A
C3050      H3059   1.083       .  S
C3051      C3052   1.407       .  A
C3051      S3055   1.802       .  S
C3052      C3053   1.407       .  A
C3053      C3054   1.394       .  A
C3053      H3060   1.083       .  S
C3054      S3056   1.803       .  S
S3055      H3058   1.405       .  S
S3056      H3057   1.407       .  S
C3061      C3062   1.419       .  A
C3061      C3066   1.422       .  A
C3062      C3063   1.419       .  A
C3062      H3071   1.083       .  S
C3063      C3064   1.415       .  A
C3063      S3067   1.800       .  S
C3064      C3065   1.408       .  A
C3065      C3066   1.399       .  A
C3065      H3072   1.082       .  S
C3066      S3068   1.805       .  S
S3067      H3070   1.407       .  S
S3068      H3069   1.408       .  S
C3073      C3074   1.404       .  A
C3073      C3078   1.412       .  A
C3074      C3075   1.403       .  A
C3074      H3083   1.084       .  S
C3075      C3076   1.411   1_655  A
C3075      S3079   1.804   1_655  S
C3076      C3077   1.397   1_455  A
C3077      C3078   1.390       .  A
C3077      H3084   1.085   1_655  S
C3078      S3080   1.806       .  S
S3079      H3082   1.405       .  S
S3080      H3081   1.403       .  S
C3085      C3086   1.409       .  A
C3085      C3090   1.417       .  A
C3086      C3087   1.395       .  A
C3086      H3095   1.083       .  S
C3087      C3088   1.413       .  A
C3087      S3091   1.803       .  S
C3088      C3089   1.405       .  A
C3089      C3090   1.398       .  A
C3089      H3096   1.084       .  S
C3090      S3092   1.803       .  S
S3091      H3094   1.401       .  S
S3092      H3093   1.408       .  S
C3097      C3098   1.400       .  A
C3097      C3102   1.411       .  A
C3098      C3099   1.387       .  A
C3098      H3107   1.083       .  S
C3099      C3100   1.408       .  A
C3099      S3103   1.812       .  S
C3100      C3101   1.397       .  A
C3101      C3102   1.388       .  A
C3101      H3108   1.084       .  S
C3102      S3104   1.801       .  S
S3103      H3106   1.407       .  S
S3104      H3105   1.399       .  S
C3109      C3110   1.403       .  A
C3109      C3114   1.411       .  A
C3110      C3111   1.399       .  A
C3110      H3119   1.084       .  S
C3111      C3112   1.417   1_655  A
C3111      S3115   1.804   1_655  S
C3112      C3113   1.410   1_455  A
C3113      C3114   1.400       .  A
C3113      H3120   1.084       .  S
C3114      S3116   1.804       .  S
S3115      H3118   1.408       .  S
S3116      H3117   1.407       .  S
C3121      C3122   1.412   1_554  A
C3121      C3126   1.414       .  A
C3122      C3123   1.416   1_556  A
C3122      H3131   1.083       .  S
C3123      C3124   1.415       .  A
C3123      S3127   1.801   1_554  S
C3124      C3125   1.406       .  A
C3125      C3126   1.398       .  A
C3125      H3132   1.084       .  S
C3126      S3128   1.806       .  S
S3127      H3130   1.405   1_556  S
S3128      H3129   1.407       .  S
C3133      C3134   1.401       .  A
C3133      C3138   1.410   1_655  A
C3134      C3135   1.398   1_655  A
C3134      H3143   1.082       .  S
C3135      C3136   1.424       .  A
C3135      S3139   1.814       .  S
C3136      C3137   1.412       .  A
C3137      C3138   1.401       .  A
C3137      H3144   1.083       .  S
C3138      S3140   1.803   1_455  S
S3139      H3142   1.407   1_455  S
S3140      H3141   1.407       .  S
C3145      C3146   1.410       .  A
C3145      C3150   1.404       .  A
C3146      C3147   1.404       .  A
C3146      H3155   1.084       .  S
C3147      C3148   1.406       .  A
C3147      S3151   1.802       .  S
C3148      C3149   1.409       .  A
C3149      C3150   1.398       .  A
C3149      H3156   1.083       .  S
C3150      S3152   1.803       .  S
S3151      H3154   1.406       .  S
S3152      H3153   1.407       .  S
C3157      C3158   1.411       .  A
C3157      C3162   1.422       .  A
C3158      C3159   1.418       .  A
C3158      H3167   1.083       .  S
C3159      C3160   1.419       .  A
C3159      S3163   1.798       .  S
C3160      C3161   1.402       .  A
C3161      C3162   1.398       .  A
C3161      H3168   1.083       .  S
C3162      S3164   1.808       .  S
S3163      H3166   1.406       .  S
S3164      H3165   1.407       .  S
C3169      C3170   1.405       .  A
C3169      C3174   1.413       .  A
C3170      C3171   1.402       .  A
C3170      H3179   1.084       .  S
C3171      C3172   1.410       .  A
C3171      S3175   1.804       .  S
C3172      C3173   1.399       .  A
C3173      C3174   1.392       .  A
C3173      H3180   1.085       .  S
C3174      S3176   1.807       .  S
S3175      H3178   1.405       .  S
S3176      H3177   1.404       .  S
C3181      C3182   1.412       .  A
C3181      C3186   1.416       .  A
C3182      C3183   1.415       .  A
C3182      H3191   1.082       .  S
C3183      C3184   1.416       .  A
C3183      S3187   1.802       .  S
C3184      C3185   1.404       .  A
C3185      C3186   1.402       .  A
C3185      H3192   1.081       .  S
C3186      S3188   1.805       .  S
S3187      H3190   1.406       .  S
S3188      H3189   1.407       .  S
C3193      C3194   1.399       .  A
C3193      C3198   1.408       .  A
C3194      C3195   1.392       .  A
C3194      H3203   1.085       .  S
C3195      C3196   1.415       .  A
C3195      S3199   1.799       .  S
C3196      C3197   1.412       .  A
C3197      C3198   1.405       .  A
C3197      H3204   1.084       .  S
C3198      S3200   1.803       .  S
S3199      H3202   1.402       .  S
S3200      H3201   1.406       .  S
C3205      C3206   1.405       .  A
C3205      C3210   1.419       .  A
C3206      C3207   1.391       .  A
C3206      H3215   1.081       .  S
C3207      C3208   1.414       .  A
C3207      S3211   1.808       .  S
C3208      C3209   1.415       .  A
C3209      C3210   1.418       .  A
C3209      H3216   1.083       .  S
C3210      S3212   1.800       .  S
S3211      H3214   1.408       .  S
S3212      H3213   1.407       .  S
C3217      C3218   1.411       .  A
C3217      C3222   1.415       .  A
C3218      C3219   1.419       .  A
C3218      H3227   1.083       .  S
C3219      C3220   1.420       .  A
C3219      S3223   1.798       .  S
C3220      C3221   1.403       .  A
C3221      C3222   1.394       .  A
C3221      H3228   1.085       .  S
C3222      S3224   1.793       .  S
S3223      H3226   1.406       .  S
S3224      H3225   1.406       .  S
C3229      C3230   1.397       .  A
C3229      C3234   1.403       .  A
C3230      C3231   1.388       .  A
C3230      H3239   1.081       .  S
C3231      C3232   1.409       .  A
C3231      S3235   1.808       .  S
C3232      C3233   1.397       .  A
C3233      C3234   1.377       .  A
C3233      H3240   1.084       .  S
C3234      S3236   1.812       .  S
S3235      H3238   1.399       .  S
S3236      H3237   1.407       .  S
C3241      C3242   1.405       .  A
C3241      C3246   1.413       .  A
C3242      C3243   1.402       .  A
C3242      H3251   1.084       .  S
C3243      C3244   1.411       .  A
C3243      S3247   1.804       .  S
C3244      C3245   1.398       .  A
C3245      C3246   1.390       .  A
C3245      H3252   1.085       .  S
C3246      S3248   1.806       .  S
S3247      H3250   1.404       .  S
S3248      H3249   1.406       .  S
C3253      C3254   1.411       .  A
C3253      C3258   1.419       .  A
C3254      C3255   1.420       .  A
C3254      H3263   1.083       .  S
C3255      C3256   1.423       .  A
C3255      S3259   1.799       .  S
C3256      C3257   1.409       .  A
C3257      C3258   1.400       .  A
C3257      H3264   1.081       .  S
C3258      S3260   1.808       .  S
S3259      H3262   1.407       .  S
S3260      H3261   1.407       .  S
