geometry optimzed in LAMMPS
_audit_creation_date              2020-12-01 
_audit_creation_method            'lammps2cif' 
_symmetry_space_group_name_H-M    'P1' 
_symmetry_Int_Tables_number       1 
_symmetry_cell_setting            triclinic 
loop_ 
_symmetry_equiv_pos_as_xyz 
  x,y,z 
_cell_length_a                    38.3128577 
_cell_length_b                    38.303741116273386 
_cell_length_c                    44.19294973615862 
_cell_angle_alpha                 89.73986052243173 
_cell_angle_beta                  90.43251002326194 
_cell_angle_gamma                 90.42150214619565 
loop_ 
_atom_site_label 
_atom_site_type_symbol 
_atom_site_fract_x 
_atom_site_fract_y 
_atom_site_fract_z 
_atom_site_charge 
O1          O  0.35235768  0.82359109  0.23854430    -0.82900
C2          C  0.34655325  0.87781131  0.12480503     0.96400
O3          O  0.32621900  0.86786175  0.14524021    -0.72100
O4          O  0.30873831  0.82692944  0.18905775    -0.75600
Al5        Al  0.33224825  0.87168298  0.18710510     1.49000
C6          C  0.31938373  0.79770614  0.17967552     0.91700
O7          O  0.42005011  0.79780252  0.17956649    -0.81900
O8          O  0.44463065  0.86575891  0.19208294    -0.75400
Al9        Al  0.38464003  0.81529259  0.20597781     1.90100
O10         O  0.41885031  0.83381757  0.14132264    -0.74500
O11         O  0.40242306  0.91984012  0.18258348    -0.74300
O12         O  0.37752301  0.88736607  0.13064522    -0.80000
O13         O  0.34548884  0.92022251  0.18418920    -0.78200
O14         O  0.37524913  0.85441188  0.18565315    -1.14300
O15         O  0.33391160  0.87670274  0.22994644    -0.73500
C16         C  0.33842739  0.85141679  0.24788829     0.97200
C17         C  0.43082391  0.80665372  0.15379632     0.93600
Al18       Al  0.40802216  0.87525381  0.16363582     1.55600
O19         O  0.35115186  0.78971087  0.18283917    -0.78200
C20         C  0.37428798  0.93648782  0.18523674     0.97700
C21         C  0.44664409  0.85093755  0.21767624     0.92600
O22         O  0.41972386  0.83748614  0.22964339    -0.83500
O23         O  0.40717290  0.85153772  0.39672721    -0.82900
C24         C  0.32559117  0.87812211  0.49876788     0.96400
O25         O  0.35100431  0.89628962  0.48969602    -0.72100
O26         O  0.40041028  0.85161131  0.48431179    -0.75600
Al27       Al  0.38419261  0.88695624  0.45917219     1.49000
C28         C  0.42005083  0.82797467  0.47503109     0.91700
O29         O  0.34762074  0.78656297  0.43806085    -0.81900
O30         O  0.31255872  0.87021699  0.39445699    -0.75400
Al31       Al  0.37695369  0.82176141  0.41919918     1.90100
O32         O  0.29972620  0.81689957  0.43334683    -0.74500
O33         O  0.31371988  0.91440095  0.44068095    -0.74300
O34         O  0.30868172  0.85870789  0.48061408    -0.80000
O35         O  0.36971801  0.92468326  0.43565316    -0.78200
O36         O  0.35776513  0.85739190  0.43857512    -1.14300
O37         O  0.42423225  0.88492657  0.43392296    -0.73500
C38         C  0.42886343  0.87284487  0.40789838     0.97200
C39         C  0.31463084  0.78775496  0.43543757     0.93600
Al40       Al  0.31206758  0.86433241  0.43742419     1.55600
O41         O  0.41399358  0.81367384  0.44954382    -0.78200
C42         C  0.33870347  0.93517866  0.43545099     0.97700
C43         C  0.32516348  0.84837260  0.37613364     0.92600
O44         O  0.34566684  0.82457178  0.38513224    -0.83500
O45         O  0.35319277  0.20508735  0.14007490    -0.82900
C46         C  0.34741418  0.14496997  0.25243060     0.96400
O47         O  0.32702061  0.15700066  0.23261906    -0.72100
O48         O  0.31009073  0.20033269  0.18967935    -0.75600
Al49       Al  0.33248272  0.15517578  0.19034646     1.49000
C50         C  0.32125517  0.23015441  0.19783225     0.91700
O51         O  0.42285868  0.22767918  0.19922330    -0.81900
O52         O  0.44500070  0.15999361  0.18474638    -0.75400
Al53       Al  0.38611652  0.21176884  0.17260288     1.90100
O54         O  0.42050305  0.19037878  0.23655491    -0.74500
O55         O  0.40171317  0.10604258  0.19371984    -0.74300
O56         O  0.37843578  0.13671654  0.24611789    -0.80000
O57         O  0.34478487  0.10618505  0.19187798    -0.78200
O58         O  0.37591040  0.17199742  0.19209527    -1.14300
O59         O  0.33342147  0.15195639  0.14730731    -0.73500
C60         C  0.33852357  0.17780692  0.13000867     0.97200
C61         C  0.43362014  0.21740236  0.22471145     0.93600
Al62       Al  0.40860376  0.14996818  0.21338092     1.55600
O63         O  0.35342314  0.23748913  0.19597362    -0.78200
C64         C  0.37318324  0.08958185  0.19107613     0.97700
C65         C  0.44678460  0.17536261  0.15932980     0.92600
O66         O  0.42005740  0.18996288  0.14814595    -0.83500
O67         O  0.40831404  0.17267472  0.47950295    -0.82900
C68         C  0.32661913  0.13711969  0.37945208     0.96400
O69         O  0.35071161  0.11803048  0.38977121    -0.72100
O70         O  0.40035024  0.16299006  0.39260540    -0.75600
Al71       Al  0.38463254  0.12995728  0.42003799     1.49000
C72         C  0.41947012  0.18818152  0.39997651     0.91700
O73         O  0.34750481  0.23011568  0.43337435    -0.81900
O74         O  0.31508926  0.14995057  0.48367683    -0.75400
Al75       Al  0.37737726  0.19862037  0.45506755     1.90100
O76         O  0.29968432  0.20057108  0.44270908    -0.74500
O77         O  0.31474533  0.10259833  0.43912229    -0.74300
O78         O  0.30893078  0.15600509  0.39714284    -0.80000
O79         O  0.37061969  0.09392511  0.44598979    -0.78200
O80         O  0.35840840  0.16069813  0.43862232    -1.14300
O81         O  0.42481447  0.13515476  0.44548397    -0.73500
C82         C  0.42958937  0.15028904  0.47043978     0.97200
C83         C  0.31490376  0.22931725  0.43784657     0.93600
Al84       Al  0.31280758  0.15290685  0.44052208     1.55600
O85         O  0.41354738  0.20479140  0.42424863    -0.78200
C86         C  0.34000851  0.08222081  0.44376939     0.97700
C87         C  0.32827036  0.17349503  0.00050666     0.92600
O88         O  0.34682036  0.19801119  0.98950178    -0.83500
O89         O  0.64711714  0.80995750  0.02214323    -0.82900
C90         C  0.64650981  0.87158334  0.13362501     0.96400
O91         O  0.66766514  0.85720347  0.11587245    -0.72100
O92         O  0.68689293  0.81441100  0.07287023    -0.75600
Al93       Al  0.66583231  0.85940555  0.07288503     1.49000
C94         C  0.67470814  0.78622948  0.08331178     0.91700
O95         O  0.57391980  0.79004789  0.07833883    -0.81900
O96         O  0.55470523  0.85945515  0.05794567    -0.75400
Al97       Al  0.61218551  0.80409053  0.05312806     1.90100
O98         O  0.57232638  0.83067670  0.11285138    -0.74500
O99         O  0.60022899  0.91142029  0.06746907    -0.74300
O100        O  0.61703261  0.88224572  0.12411477    -0.80000
O101        O  0.65651823  0.90785533  0.07360170    -0.78200
O102        O  0.62188501  0.84432769  0.07176879    -1.14300
O103        O  0.66656735  0.86316218  0.03008077    -0.73500
C104        C  0.65990247  0.83834591  0.01217580     0.97200
C105        C  0.56094332  0.80227288  0.10211582     0.93600
Al106      Al  0.58879111  0.86907623  0.08906952     1.55600
O107        O  0.64270652  0.77901162  0.07975457    -0.78200
C108        C  0.62997913  0.92581538  0.06796028     0.97700
C109        C  0.55416989  0.84230506  0.03339384     0.92600
O110        O  0.58036974  0.82484710  0.02557151    -0.83500
O111        O  0.57801908  0.85016144  0.35417367    -0.82900
C112        C  0.66576365  0.89158274  0.26120762     0.96400
O113        O  0.64003810  0.90935325  0.26949600    -0.72100
O114        O  0.59740153  0.85673895  0.26793593    -0.75600
Al115      Al  0.60406243  0.89265563  0.29572372     1.49000
C116        C  0.57891555  0.83072722  0.27470833     0.91700
O117        O  0.65065896  0.79715415  0.31696874    -0.81900
O118        O  0.66869843  0.88085803  0.36714329    -0.75400
Al119      Al  0.61453105  0.82622363  0.33401586     1.90100
O120        O  0.69323274  0.83304955  0.32828262    -0.74500
O121        O  0.66642023  0.92822154  0.32251418    -0.74300
O122        O  0.68352061  0.87508083  0.28089303    -0.80000
O123        O  0.60927369  0.93065330  0.32219706    -0.78200
O124        O  0.63109908  0.86564348  0.31833800    -1.14300
O125        O  0.56140908  0.88295945  0.31621990    -0.73500
C126        C  0.55590825  0.87018045  0.34200347     0.97200
C127        C  0.68264326  0.80241287  0.32352499     0.93600
Al128      Al  0.67492143  0.87852032  0.32413329     1.55600
O129        O  0.58345529  0.81557592  0.30002669    -0.78200
C130        C  0.63845773  0.94531839  0.32577558     0.97700
C131        C  0.65711222  0.85548806  0.38289341     0.92600
O132        O  0.64037172  0.83047460  0.37083603    -0.83500
O133        O  0.58354843  0.16903797  0.02103283    -0.82900
C134        C  0.66641266  0.13003525  0.12021726     0.96400
O135        O  0.63994412  0.11359439  0.11077126    -0.72100
O136        O  0.59793205  0.16592702  0.10822899    -0.75600
Al137      Al  0.60610855  0.12920845  0.08195285     1.49000
C138        C  0.57927341  0.19105704  0.09990540     0.91700
O139        O  0.65366681  0.22603917  0.05946342    -0.81900
O140        O  0.67623595  0.14010329  0.01488448    -0.75400
Al141      Al  0.61857633  0.19442904  0.04242916     1.90100
O142        O  0.69702528  0.18996212  0.05415185    -0.74500
O143        O  0.66988979  0.09298188  0.05994334    -0.74300
O144        O  0.68472441  0.14746001  0.10161541    -0.80000
O145        O  0.61279445  0.09037103  0.05681776    -0.78200
O146        O  0.63457622  0.15597739  0.06049752    -1.14300
O147        O  0.56474538  0.13774632  0.05903666    -0.73500
C148        C  0.56046985  0.14999530  0.03287272     0.97200
C149        C  0.68601204  0.22102728  0.05490584     0.93600
Al150      Al  0.67878528  0.14355148  0.05803700     1.55600
O151        O  0.58511530  0.20583202  0.07454485    -0.78200
C152        C  0.64189067  0.07550644  0.05552229     0.97700
C153        C  0.66561427  0.16463360  0.49781439     0.92600
O154        O  0.64637715  0.18864767  0.00769208    -0.83500
O155        O  0.64652581  0.20343972  0.36205969    -0.82900
C156        C  0.65042936  0.14823240  0.24769556     0.96400
O157        O  0.67034158  0.16416377  0.26595501    -0.72100
O158        O  0.68808698  0.20435017  0.31172246    -0.75600
Al159      Al  0.66765136  0.15929125  0.30863289     1.49000
C160        C  0.67648182  0.23466233  0.30701945     0.91700
O161        O  0.57573984  0.22696105  0.30348982    -0.81900
O162        O  0.55461850  0.15873050  0.31871577    -0.75400
Al163      Al  0.61293086  0.21167779  0.33026657     1.90100
O164        O  0.57742789  0.18905645  0.26645055    -0.74500
O165        O  0.60102792  0.10767638  0.31172824    -0.74300
O166        O  0.62089996  0.13674189  0.25635830    -0.80000
O167        O  0.65753224  0.11105452  0.30576161    -0.78200
O168        O  0.62371798  0.17366170  0.30946919    -1.14300
O169        O  0.66868359  0.15248508  0.35083196    -0.73500
C170        C  0.66179047  0.17552618  0.36999719     0.97200
C171        C  0.56496812  0.21637159  0.27796248     0.93600
Al172      Al  0.59110451  0.14973232  0.28992645     1.55600
O173        O  0.64416323  0.24018277  0.30797411    -0.78200
C174        C  0.63064106  0.09340776  0.31172945     0.97700
C175        C  0.55369342  0.17365553  0.34426437     0.92600
O176        O  0.58077094  0.18780620  0.35483403    -0.83500
O177        O  0.83564464  0.59929799  0.08775623    -0.82900
C178        C  0.87093791  0.68156563  0.18815800     0.96400
O179        O  0.88631868  0.65481737  0.17909774    -0.72100
O180        O  0.83633592  0.61027320  0.17610480    -0.75600
Al181      Al  0.87298811  0.62128504  0.15028912     1.49000
C182        C  0.81466281  0.58794247  0.16710470     0.91700
O183        O  0.77666336  0.65952930  0.13163320    -0.81900
O184        O  0.85846993  0.69082437  0.08343643    -0.75400
Al185      Al  0.80807180  0.62975140  0.11093721     1.90100
O186        O  0.80778594  0.70717280  0.12384118    -0.74500
O187        O  0.90614601  0.68797787  0.12802102    -0.74300
O188        O  0.85247247  0.69922817  0.16984897    -0.80000
O189        O  0.91099377  0.63112089  0.12607378    -0.78200
O190        O  0.84548419  0.64825027  0.12896206    -1.14300
O191        O  0.86700886  0.58086677  0.12616038    -0.73500
C192        C  0.85584907  0.57718095  0.09949794     0.97200
C193        C  0.77850723  0.69225457  0.12779682     0.93600
Al194      Al  0.85538747  0.69325380  0.12642852     1.55600
O195        O  0.80012627  0.59238983  0.14140392    -0.78200
C196        C  0.92471527  0.66087742  0.12474024     0.97700
C197        C  0.83413548  0.67977385  0.06634389     0.92600
O198        O  0.80950972  0.66102624  0.07668007    -0.83500
O199        O  0.80199700  0.66120522  0.42721771    -0.82900
C200        C  0.86098120  0.66811286  0.31556141     0.96400
O201        O  0.84776665  0.68825011  0.33467286    -0.72100
O202        O  0.80608971  0.70508941  0.37866483    -0.75600
Al203      Al  0.85105756  0.68248506  0.37706109     1.49000
C204        C  0.77658906  0.69453713  0.36901382     0.91700
O205        O  0.77874903  0.59257211  0.36660757    -0.81900
O206        O  0.84581148  0.56889650  0.38408381    -0.75400
Al207      Al  0.79429023  0.62880776  0.39419681     1.90100
O208        O  0.81765726  0.59571108  0.33095436    -0.74500
O209        O  0.89992605  0.61353252  0.37712198    -0.74300
O210        O  0.87085560  0.63766225  0.32315465    -0.80000
O211        O  0.90025681  0.67044913  0.37501878    -0.78200
O212        O  0.83432279  0.63898947  0.37573402    -1.14300
O213        O  0.85545205  0.68040070  0.41963133    -0.73500
C214        C  0.83037592  0.67425670  0.43724760     0.97200
C215        C  0.79044391  0.58206979  0.34161887     0.93600
Al216      Al  0.85688831  0.60659107  0.35555714     1.55600
O217        O  0.76932629  0.66232138  0.37017550    -0.78200
C218        C  0.91666602  0.64207663  0.37819796     0.97700
C219        C  0.82983871  0.56715121  0.40928054     0.92600
O220        O  0.81476704  0.59392201  0.41927980    -0.83500
O221        O  0.17324921  0.59976320  0.17393182    -0.82900
C222        C  0.12407061  0.67750702  0.07604372     0.96400
O223        O  0.10810861  0.65096278  0.08638931    -0.72100
O224        O  0.15809257  0.60726660  0.08732041    -0.75600
Al225      Al  0.12495427  0.61802919  0.11606280     1.49000
C226        C  0.18549539  0.59110907  0.09348895     0.91700
O227        O  0.22064929  0.66775534  0.12774887    -0.81900
O228        O  0.13867343  0.68931083  0.17898255    -0.75400
Al229      Al  0.19371025  0.63388796  0.14946256     1.90100
O230        O  0.18696005  0.71141504  0.13888409    -0.74500
O231        O  0.09133273  0.68418946  0.13521114    -0.74300
O232        O  0.14269472  0.69658219  0.09329256    -0.80000
O233        O  0.08798517  0.62774472  0.14301792    -0.78200
O234        O  0.15336292  0.64788348  0.13408394    -1.14300
O235        O  0.13773465  0.57739558  0.14065807    -0.73500
C236        C  0.15775195  0.57366729  0.16346576     0.97200
C237        C  0.21702821  0.69969486  0.13378572     0.93600
Al238      Al  0.14091104  0.69226800  0.13637449     1.55600
O239        O  0.20288874  0.59892028  0.11732961    -0.78200
C240        C  0.07329822  0.65712704  0.14053826     0.97700
C241        C  0.16321313  0.67868449  0.19592615     0.92600
O242        O  0.18982868  0.66361355  0.18484411    -0.83500
O243        O  0.18674866  0.65796280  0.33662979    -0.82900
C244        C  0.13011360  0.66037885  0.44889267     0.96400
O245        O  0.13905917  0.68189396  0.42872790    -0.72100
O246        O  0.18394421  0.69776314  0.38673367    -0.75600
Al247      Al  0.13734991  0.67752642  0.38609065     1.49000
C248        C  0.21307416  0.68515894  0.39513674     0.91700
O249        O  0.20554996  0.58408201  0.38992443    -0.81900
O250        O  0.13359173  0.56675209  0.37624142    -0.75400
Al251      Al  0.19073306  0.62292301  0.36659866     1.90100
O252        O  0.17095705  0.58446663  0.42853243    -0.74500
O253        O  0.08498499  0.61060576  0.39165622    -0.74300
O254        O  0.12245425  0.62909790  0.44259947    -0.80000
O255        O  0.08772528  0.66711418  0.38646663    -0.78200
O256        O  0.15226475  0.63359241  0.38710386    -1.14300
O257        O  0.13426061  0.67808516  0.34248313    -0.73500
C258        C  0.16042770  0.67295171  0.32584267     0.97200
C259        C  0.19722067  0.57244594  0.41537017     0.93600
Al260      Al  0.12991070  0.60063289  0.40797590     1.55600
O261        O  0.21906544  0.65286113  0.39164900    -0.78200
C262        C  0.06991513  0.63919434  0.38698275     0.97700
C263        C  0.14485092  0.56801221  0.34927437     0.92600
O264        O  0.16488264  0.59256419  0.34063239    -0.83500
O265        O  0.80985337  0.36296023  0.21231251    -0.82900
C266        C  0.86559422  0.35995346  0.32671958     0.96400
O267        O  0.85015982  0.33978736  0.30838767    -0.72100
O268        O  0.80977281  0.32263363  0.26226355    -0.75600
Al269      Al  0.85513881  0.34305714  0.26572487     1.49000
C270        C  0.78091981  0.33482140  0.27054618     0.91700
O271        O  0.78736967  0.43566542  0.26833363    -0.81900
O272        O  0.85667869  0.45537792  0.25329360    -0.75400
Al273      Al  0.80239876  0.39753716  0.24336131     1.90100
O274        O  0.82481759  0.43536878  0.30594931    -0.74500
O275        O  0.90780518  0.40867989  0.26423331    -0.74300
O276        O  0.87553356  0.39024682  0.31837699    -0.80000
O277        O  0.90380953  0.35225473  0.26979847    -0.78200
O278        O  0.84078144  0.38712406  0.26447892    -1.14300
O279        O  0.86202856  0.34310286  0.22339946    -0.73500
C280        C  0.83856652  0.34977302  0.20413870     0.97200
C281        C  0.79786340  0.44774473  0.29334218     0.93600
Al282      Al  0.86454855  0.41976019  0.28386071     1.55600
O283        O  0.77483810  0.36700355  0.26758759    -0.78200
C284        C  0.92207627  0.37894563  0.26468064     0.97700
C285        C  0.84099226  0.45636137  0.22789038     0.92600
O286        O  0.82596698  0.42933514  0.21785168    -0.83500
O287        O  0.84437633  0.42423254  0.05057980    -0.82900
C288        C  0.88345017  0.34113136  0.45379705     0.96400
O289        O  0.90027869  0.36781761  0.46253802    -0.72100
O290        O  0.85100126  0.41328803  0.46385656    -0.75600
Al291      Al  0.88651925  0.40224644  0.49111719     1.49000
C292        C  0.82567629  0.43184150  0.47118511     0.91700
O293        O  0.78898686  0.35527362  0.00999319    -0.81900
O294        O  0.87475522  0.33464912  0.05910332    -0.75400
Al295      Al  0.81979293  0.39015349  0.02848091     1.90100
O296        O  0.82426077  0.31218599  0.02020765    -0.74500
O297        O  0.92164270  0.33729268  0.01374841    -0.74300
O298        O  0.86674411  0.32280472  0.47289675    -0.80000
O299        O  0.92506022  0.39403621  0.51668123    -0.78200
O300        O  0.85876184  0.37413993  0.01192547    -1.14300
O301        O  0.87883007  0.44279145  0.01460119    -0.73500
C302        C  0.86469564  0.44691363  0.03991394     0.97200
C303        C  0.79350945  0.32303498  0.01606798     0.93600
Al304      Al  0.87090103  0.32990723  0.01608913     1.55600
O305        O  0.80980440  0.42511481  0.99591724    -0.78200
C306        C  0.93969251  0.36487669  0.01778451     0.97700
C307        C  0.84970610  0.34484826  0.07544833     0.92600
O308        O  0.82422048  0.36162609  0.06418410    -0.83500
O309        O  0.20069228  0.36074250  0.05277244    -0.82900
C310        C  0.14727169  0.36285935  0.43800322     0.96400
O311        O  0.16112497  0.34146409  0.45602493    -0.72100
O312        O  0.20104512  0.32081331  0.50026036    -0.75600
Al313      Al  0.15597070  0.34155168  0.49816105     1.49000
C314        C  0.22953162  0.33369703  0.49130969     0.91700
O315        O  0.22460594  0.43382387  0.49522354    -0.81900
O316        O  0.15520001  0.45414547  0.01290669    -0.75400
Al317      Al  0.20937096  0.39582430  0.02124113     1.90100
O318        O  0.18418483  0.43449257  0.45982966    -0.74500
O319        O  0.10341192  0.40660822  0.50392525    -0.74300
O320        O  0.13321580  0.39064559  0.44751310    -0.80000
O321        O  0.10724204  0.35080026  0.99527468    -0.78200
O322        O  0.17028279  0.38580430  0.50087219    -1.14300
O323        O  0.14972218  0.33865869  0.03991195    -0.73500
C324        C  0.17236666  0.34502985  0.05986142     0.97200
C325        C  0.21263759  0.44587058  0.47058742     0.93600
Al326      Al  0.14569423  0.41878120  0.48271326     1.55600
O327        O  0.23628090  0.36541585  0.99627446    -0.78200
C328        C  0.08917227  0.37671261  0.00249832     0.97700
C329        C  0.17243839  0.45548529  0.03755143     0.92600
O330        O  0.18765866  0.42848876  0.04722212    -0.83500
O331        O  0.18744827  0.36070698  0.29759429    -0.82900
C332        C  0.13570617  0.34179035  0.18544169     0.96400
O333        O  0.14616568  0.32288041  0.20699911    -0.72100
O334        O  0.18744813  0.31374323  0.25288596    -0.75600
Al335      Al  0.14022859  0.33149282  0.24911123     1.49000
C336        C  0.21654820  0.32616455  0.24413187     0.91700
O337        O  0.20240251  0.42932275  0.23333111    -0.81900
O338        O  0.13455892  0.44425165  0.24715077    -0.75400
Al339      Al  0.19143450  0.39164651  0.26310507     1.90100
O340        O  0.16789196  0.41214789  0.19786834    -0.74500
O341        O  0.08757469  0.39669751  0.24156544    -0.74300
O342        O  0.11817065  0.36891251  0.19071446    -0.80000
O343        O  0.08935801  0.34002671  0.24619718    -0.78200
O344        O  0.15306562  0.37557935  0.24477400    -1.14300
O345        O  0.13549526  0.33715912  0.29161693    -0.73500
C346        C  0.15994981  0.34738128  0.30887135     0.97200
C347        C  0.18854202  0.43458360  0.20749093     0.93600
Al348      Al  0.12882747  0.40345239  0.22101975     1.55600
O349        O  0.22070321  0.35912929  0.24224232    -0.78200
C350        C  0.07247525  0.36854496  0.24754361     0.97700
C351        C  0.14564088  0.44681243  0.27425971     0.92600
O352        O  0.16537668  0.42384988  0.28553828    -0.83500
C353        C  0.18509192  0.35778626  0.35996095    -0.10300
C354        C  0.15659837  0.34588653  0.34244412     0.05900
C355        C  0.12512908  0.33690089  0.35752790    -0.04100
C356        C  0.12217503  0.34269630  0.38878118    -0.08500
C357        C  0.15025179  0.35644175  0.40543587     0.05000
C358        C  0.18220473  0.36271781  0.39104007    -0.03500
Br359      Br  0.22266492  0.37879378  0.41286084    -0.03200
H360        H  0.20974449  0.36428363  0.34940354     0.08900
H361        H  0.09788094  0.33652828  0.40011657     0.06900
Br362      Br  0.08498237  0.31722692  0.33742213    -0.03700
C363        C  0.18943328  0.34484573  0.11413069    -0.10300
C364        C  0.16470541  0.33596310  0.09198738     0.05900
C365        C  0.13185534  0.32247186  0.10164229    -0.04100
C366        C  0.12306154  0.32308441  0.13243392    -0.08500
C367        C  0.14707136  0.33474950  0.15415650     0.05000
C368        C  0.18113369  0.34379733  0.14477411    -0.03500
Br369      Br  0.21739484  0.35760878  0.17195020    -0.03200
H370        H  0.21509943  0.35414778  0.10761860     0.08900
H371        H  0.09714455  0.31502572  0.13937727     0.06900
Br372      Br  0.09738799  0.30282303  0.07472021    -0.03700
C373        C  0.03374998  0.39495959  0.02757309    -0.10300
C374        C  0.05126448  0.37134352  0.00886802     0.05900
C375        C  0.03213513  0.34240124  0.49713053    -0.04100
C376        C  0.99620352  0.33935607  0.50228325    -0.08500
C377        C  0.97842961  0.36411984  0.01944982     0.05000
C378        C  0.99793139  0.39115262  0.03339987    -0.03500
Br379      Br  0.97719619  0.42256048  0.06175547    -0.03200
H380        H  0.04802036  0.41632372  0.03797795     0.08900
H381        H  0.98173896  0.31841110  0.49143511     0.06900
Br382      Br  0.05210535  0.30681248  0.47217811    -0.03700
C383        C  0.98217899  0.40392185  0.26631938    -0.10300
C384        C  0.96052196  0.37509478  0.26057438     0.05900
C385        C  0.97642044  0.34308808  0.25238050    -0.04100
C386        C  0.01287094  0.34101608  0.24949464    -0.08500
C387        C  0.03441110  0.37019413  0.25451113     0.05000
C388        C  0.01845796  0.40186192  0.26365116    -0.03500
Br389      Br  0.04390965  0.44376018  0.27394188    -0.03200
H390        H  0.97083849  0.42837474  0.27339636     0.08900
H391        H  0.02431247  0.31666061  0.24230594     0.06900
Br392      Br  0.95041967  0.30136801  0.24302769    -0.03700
C393        C  0.84846798  0.32782265  0.37413095    -0.10300
C394        C  0.87309706  0.34794961  0.35804531     0.05900
C395        C  0.90465359  0.35714562  0.37257987    -0.04100
C396        C  0.90913984  0.35030053  0.40335941    -0.08500
C397        C  0.88257811  0.33457852  0.42061821     0.05000
C398        C  0.85302280  0.32091965  0.40525342    -0.03500
Br399      Br  0.81713322  0.29489974  0.42562807    -0.03200
H400        H  0.82473521  0.31907574  0.36289589     0.08900
H401        H  0.93279670  0.35966804  0.41433402     0.06900
Br402      Br  0.94259725  0.37971692  0.35185504    -0.03700
C403        C  0.81612087  0.33050635  0.15435276    -0.10300
C404        C  0.84434280  0.34254686  0.17179772     0.05900
C405        C  0.87633650  0.35039515  0.15738823    -0.04100
C406        C  0.87873216  0.34803607  0.12581289    -0.08500
C407        C  0.84958955  0.33834287  0.10832234     0.05000
C408        C  0.81860207  0.32807678  0.12297354    -0.03500
Br409      Br  0.77870810  0.31062212  0.10122974    -0.03200
H410        H  0.79166588  0.32372262  0.16513846     0.08900
H411        H  0.90257412  0.35632593  0.11477502     0.06900
Br412      Br  0.91614841  0.36873630  0.17888068    -0.03700
C413        C  0.22411036  0.54015572  0.45880516    -0.10300
C414        C  0.21553013  0.54175818  0.42793335     0.05900
C415        C  0.22009158  0.51157369  0.41013626    -0.04100
C416        C  0.22512401  0.47935665  0.42429052    -0.08500
C417        C  0.22820898  0.47694093  0.45580464     0.05000
C418        C  0.23270121  0.50811238  0.47233930    -0.03500
Br419      Br  0.25011961  0.50824292  0.51301930    -0.03200
H420        H  0.22336174  0.56353796  0.47244190     0.08900
H421        H  0.22313990  0.45589594  0.41089520     0.06900
Br422      Br  0.21550075  0.51121089  0.36691523    -0.03700
C423        C  0.13191040  0.50523295  0.34172417    -0.10300
C424        C  0.13714473  0.53837017  0.32878527     0.05900
C425        C  0.13826756  0.54136361  0.29695532    -0.04100
C426        C  0.13868837  0.51116779  0.27911209    -0.08500
C427        C  0.13767532  0.47789024  0.29256263     0.05000
C428        C  0.13242048  0.47520156  0.32403532    -0.03500
Br429      Br  0.12600399  0.43135623  0.34440450    -0.03200
H430        H  0.12967843  0.50233763  0.36604698     0.08900
H431        H  0.14137703  0.51372200  0.25480712     0.06900
Br432      Br  0.13796830  0.58580600  0.27677115    -0.03700
C433        C  0.09562182  0.67011212  0.49479169    -0.10300
C434        C  0.12801127  0.67175621  0.48044740     0.05900
C435        C  0.15806735  0.68085828  0.49728316    -0.04100
C436        C  0.15539226  0.68723824  0.02830543    -0.08500
C437        C  0.12335703  0.68305593  0.04310600     0.05000
C438        C  0.09307938  0.67543607  0.02591172    -0.03500
Br439      Br  0.04790364  0.67009356  0.04396035    -0.03200
H440        H  0.07242769  0.66309762  0.48192998     0.08900
H441        H  0.17903005  0.69171958  0.04139215     0.06900
Br442      Br  0.20395870  0.67845247  0.48045916    -0.03700
C443        C  0.19248242  0.68513410  0.24563844    -0.10300
C444        C  0.16120599  0.68341874  0.22913122     0.05900
C445        C  0.12923237  0.68339721  0.24505224    -0.04100
C446        C  0.12935953  0.68294061  0.27679512    -0.08500
C447        C  0.16082331  0.68214926  0.29320816     0.05000
C448        C  0.19266776  0.68478438  0.27717646    -0.03500
Br449      Br  0.23785012  0.68758405  0.29641597    -0.03200
H450        H  0.21723521  0.68596724  0.23388339     0.08900
H451        H  0.10474096  0.68074878  0.28859578     0.06900
Br452      Br  0.08451310  0.67987414  0.22539135    -0.03700
C453        C  0.19945053  0.49882982  0.20880165    -0.10300
C454        C  0.18750899  0.46963770  0.19265724     0.05900
C455        C  0.16667679  0.47546932  0.16628691    -0.04100
C456        C  0.15668218  0.50923660  0.15823148    -0.08500
C457        C  0.16697468  0.53831083  0.17527106     0.05000
C458        C  0.18976309  0.53279771  0.20042276    -0.03500
Br459      Br  0.20859499  0.56963111  0.22521331    -0.03200
H460        H  0.21510044  0.49516798  0.22927760     0.08900
H461        H  0.14067301  0.51268174  0.13808599     0.06900
Br462      Br  0.14851525  0.43908849  0.14035403    -0.03700
C463        C  0.16654515  0.52021251  0.03712968    -0.10300
C464        C  0.17802745  0.49018598  0.05264840     0.05900
C465        C  0.19919554  0.49525944  0.07890723    -0.04100
C466        C  0.20458557  0.52903241  0.09062301    -0.08500
C467        C  0.19127071  0.55863182  0.07583654     0.05000
C468        C  0.17406554  0.55380033  0.04768928    -0.03500
Br469      Br  0.16023782  0.59208304  0.02211606    -0.03200
H470        H  0.15263936  0.51780742  0.01581129     0.08900
H471        H  0.21811932  0.53195604  0.11207355     0.06900
Br472      Br  0.22343898  0.45826360  0.09937503    -0.03700
C473        C  0.83847132  0.50247102  0.41110443    -0.10300
C474        C  0.82654484  0.53261802  0.42559331     0.05900
C475        C  0.80938679  0.52805477  0.45381878    -0.04100
C476        C  0.80668507  0.49459657  0.46729466    -0.08500
C477        C  0.82008191  0.46473407  0.45310827     0.05000
C478        C  0.83540922  0.46921103  0.42415780    -0.03500
Br479      Br  0.85372769  0.43122866  0.40086484    -0.03200
H480        H  0.85065438  0.50462796  0.38868484     0.08900
H481        H  0.79556520  0.49227330  0.48936236     0.06900
Br482      Br  0.78915643  0.56591442  0.47588585    -0.03700
C483        C  0.97438245  0.61226304  0.37201952    -0.10300
C484        C  0.95588129  0.64196619  0.38129472     0.05900
C485        C  0.97563242  0.67108888  0.39162247    -0.04100
C486        C  0.01239837  0.66980019  0.39268481    -0.08500
C487        C  0.03081060  0.64002597  0.38351521     0.05000
C488        C  0.01110576  0.61112510  0.37277246    -0.03500
Br489      Br  0.03255046  0.56998239  0.35680017    -0.03200
H490        H  0.96018394  0.58983656  0.36328830     0.08900
H491        H  0.02670013  0.69218473  0.40132393     0.06900
Br492      Br  0.95441465  0.71316421  0.40579031    -0.03700
C493        C  0.77437957  0.51976219  0.34745818    -0.10300
C494        C  0.77761239  0.54895315  0.32818595     0.05900
C495        C  0.77821857  0.54348080  0.29672849    -0.04100
C496        C  0.78025062  0.50938793  0.28536029    -0.08500
C497        C  0.78255655  0.48048504  0.30505992     0.05000
C498        C  0.77701259  0.48574251  0.33607973    -0.03500
Br499      Br  0.77335021  0.44708435  0.36344008    -0.03200
H500        H  0.77316472  0.52334311  0.37170338     0.08900
H501        H  0.78321549  0.50576839  0.26125156     0.06900
Br502      Br  0.77868700  0.58208234  0.26889631    -0.03700
C503        C  0.83207282  0.55354789  0.21189156    -0.10300
C504        C  0.81442455  0.55404991  0.18382913     0.05900
C505        C  0.80621477  0.52173498  0.17012491    -0.04100
C506        C  0.81659034  0.49044314  0.18416658    -0.08500
C507        C  0.83539239  0.49022219  0.21180807     0.05000
C508        C  0.84305460  0.52266073  0.22557837    -0.03500
Br509      Br  0.86836774  0.52817716  0.26308797    -0.03200
H510        H  0.83914840  0.57785403  0.22288210     0.08900
H511        H  0.80968487  0.46602828  0.17330320     0.06900
Br512      Br  0.78213807  0.51803668  0.13196819    -0.03700
C513        C  0.98020232  0.69055623  0.13853627    -0.10300
C514        C  0.96310521  0.66268347  0.12405449     0.05900
C515        C  0.98282244  0.63361916  0.11476163    -0.04100
C516        C  0.01813141  0.63178178  0.12213174    -0.08500
C517        C  0.03504272  0.65900053  0.13759716     0.05000
C518        C  0.01595652  0.68914257  0.14502644    -0.03500
Br519      Br  0.03658536  0.72853035  0.16520300    -0.03200
H520        H  0.96546912  0.71289632  0.14608630     0.08900
H521        H  0.03276426  0.60936035  0.11465480     0.06900
Br522      Br  0.96368661  0.59575340  0.09119692    -0.03700
C523        C  0.84488131  0.70350801  0.23600816    -0.10300
C524        C  0.87330588  0.68873952  0.22097854     0.05900
C525        C  0.90031461  0.67335243  0.23848580    -0.04100
C526        C  0.89613447  0.66858566  0.26942825    -0.08500
C527        C  0.86613760  0.67992196  0.28403847     0.05000
C528        C  0.84131562  0.69963537  0.26747010    -0.03500
Br529      Br  0.80046264  0.71881153  0.28557173    -0.03200
H530        H  0.82405447  0.71571042  0.22306742     0.08900
H531        H  0.91616259  0.65481417  0.28208605     0.06900
Br532      Br  0.94310009  0.65611276  0.22175126    -0.03700
C533        C  0.86556960  0.67924025  0.01774204    -0.10300
C534        C  0.83496215  0.68663461  0.03354550     0.05900
C535        C  0.80439101  0.69489113  0.01720248    -0.04100
C536        C  0.80397933  0.69243094  0.48567252    -0.08500
C537        C  0.83378723  0.68208045  0.46987882     0.05000
C538        C  0.86524391  0.67666412  0.48616015    -0.03500
Br539      Br  0.90746466  0.66124275  0.46745499    -0.03200
H540        H  0.88916559  0.67270900  0.03011402     0.08900
H541        H  0.77993272  0.69769037  0.47349790     0.06900
Br542      Br  0.76255987  0.70971136  0.03681956    -0.03700
C543        C  0.86712570  0.51441719  0.10112319    -0.10300
C544        C  0.86399235  0.54494094  0.08367901     0.05900
C545        C  0.86642715  0.54320960  0.05199541    -0.04100
C546        C  0.86946365  0.51076560  0.03824313    -0.08500
C547        C  0.86915845  0.48002211  0.05564918     0.05000
C548        C  0.86898133  0.48197898  0.08742417    -0.03500
Br549      Br  0.87002061  0.44165251  0.11342245    -0.03200
H550        H  0.86598365  0.51551431  0.12560037     0.08900
H551        H  0.86990690  0.50948139  0.01375397     0.06900
Br552      Br  0.86568134  0.58385998  0.02645242    -0.03700
C553        C  0.73742473  0.25462044  0.30348762    -0.10300
C554        C  0.70192695  0.26287050  0.30054800     0.05900
C555        C  0.69268172  0.29684182  0.29091923    -0.04100
C556        C  0.71886145  0.32030917  0.28189405    -0.08500
C557        C  0.75422419  0.31081205  0.28279262     0.05000
C558        C  0.76338920  0.27798833  0.29506759    -0.03500
Br559      Br  0.81046789  0.26262376  0.30222226    -0.03200
H560        H  0.74541086  0.22941064  0.31219740     0.08900
H561        H  0.71142389  0.34581520  0.27348600     0.06900
Br562      Br  0.64542791  0.31319699  0.28921059    -0.03700
C563        C  0.73012135  0.30909877  0.03041378    -0.10300
C564        C  0.76384203  0.29761997  0.02239372     0.05900
C565        C  0.77049043  0.26138835  0.02556935    -0.04100
C566        C  0.74552584  0.23877626  0.03793437    -0.08500
C567        C  0.71194640  0.24971610  0.04639349     0.05000
C568        C  0.70423883  0.28564056  0.04179479    -0.03500
Br569      Br  0.65909289  0.30435743  0.05014441    -0.03200
H570        H  0.72401584  0.33659116  0.02848740     0.08900
H571        H  0.75259489  0.21151362  0.03990199     0.06900
Br572      Br  0.81279156  0.23927597  0.51256057    -0.03700
C573        C  0.67264141  0.13548413  0.44823072    -0.10300
C574        C  0.67429143  0.16601613  0.46553146     0.05900
C575        C  0.67818792  0.19856642  0.45078401    -0.04100
C576        C  0.67657960  0.20044664  0.41946857    -0.08500
C577        C  0.67112251  0.17047267  0.40210129     0.05000
C578        C  0.67090566  0.13738735  0.41658203    -0.03500
Br579      Br  0.66415368  0.09424644  0.39526446    -0.03200
H580        H  0.66977383  0.11033230  0.45933681     0.08900
H581        H  0.67797241  0.22589608  0.40866895     0.06900
Br582      Br  0.68398613  0.24202119  0.47176791    -0.03700
C583        C  0.65336070  0.10962854  0.20283127    -0.10300
C584        C  0.66169000  0.14183852  0.21611355     0.05900
C585        C  0.67938830  0.16722576  0.19852446    -0.04100
C586        C  0.68394893  0.16185169  0.16732638    -0.08500
C587        C  0.67250113  0.13079736  0.15350058     0.05000
C588        C  0.65954857  0.10359994  0.17214688    -0.03500
Br589      Br  0.64989555  0.05752594  0.15697588    -0.03200
H590        H  0.64164760  0.08907168  0.21636017     0.08900
H591        H  0.69441206  0.18287520  0.15359304     0.06900
Br592      Br  0.69543915  0.21073122  0.21517857    -0.03700
C593        C  0.69474571  0.73937091  0.33575721    -0.10300
C594        C  0.70753729  0.77326689  0.33007989     0.05900
C595        C  0.74347783  0.77993370  0.33597017    -0.04100
C596        C  0.76439499  0.75429464  0.34933614    -0.08500
C597        C  0.75158290  0.72062560  0.35578688     0.05000
C598        C  0.71633251  0.71309195  0.34798162    -0.03500
Br599      Br  0.69521406  0.66806626  0.35399182    -0.03200
H600        H  0.66748375  0.73346192  0.33157303     0.08900
H601        H  0.79151118  0.76070535  0.35392485     0.06900
Br602      Br  0.76709116  0.82291051  0.32566960    -0.03700
C603        C  0.66455211  0.00095946  0.31068817    -0.10300
C604        C  0.63976852  0.98348657  0.32830259     0.05900
C605        C  0.61335646  0.00273774  0.34258406    -0.04100
C606        C  0.61101389  0.03874236  0.33743053    -0.08500
C607        C  0.63454988  0.05582035  0.31803991     0.05000
C608        C  0.66190666  0.03653513  0.30497088    -0.03500
Br609      Br  0.69416737  0.05542281  0.27591046    -0.03200
H610        H  0.68453038  0.98634943  0.29909145     0.08900
H611        H  0.59049336  0.05333171  0.34827085     0.06900
Br612      Br  0.58004121  0.98123393  0.36920476    -0.03700
C613        C  0.69205279  0.72569743  0.09758305    -0.10300
C614        C  0.69845932  0.76179093  0.09914167     0.05900
C615        C  0.72833844  0.77379111  0.11513063    -0.04100
C616        C  0.75130521  0.74994428  0.12800417    -0.08500
C617        C  0.74696366  0.71393536  0.12383633     0.05000
C618        C  0.71630738  0.70170843  0.10912805    -0.03500
Br619      Br  0.70789195  0.65337346  0.10017389    -0.03200
H620        H  0.66931932  0.71603744  0.08545900     0.08900
H621        H  0.77450788  0.75986990  0.13931994     0.06900
Br622      Br  0.74151989  0.82202903  0.11950386    -0.03700
C623        C  0.61281477  0.98166600  0.04220372    -0.05500
C624        C  0.63458934  0.96392580  0.06274634     0.05900
C625        C  0.66112072  0.98305800  0.07801146    -0.04100
C626        C  0.66493330  0.01891713  0.07303132    -0.08500
C627        C  0.64227506  0.03691637  0.05362368     0.05000
C628        C  0.61646693  0.01782256  0.03753805    -0.03500
Br629      Br  0.58588802  0.03974431  0.00866350    -0.03200
H630        H  0.59283886  0.96742018  0.02982861     0.08900
H631        H  0.68422839  0.03323837  0.08614950     0.06900
Br632      Br  0.69075806  0.96311845  0.10871121    -0.03700
C633        C  0.65720346  0.87639037  0.46660940    -0.10300
C634        C  0.66464487  0.84341831  0.47922204     0.05900
C635        C  0.67233396  0.81552960  0.45967946    -0.04100
C636        C  0.67180289  0.82086484  0.42838266    -0.08500
C637        C  0.66308604  0.85343630  0.41582311     0.05000
C638        C  0.65579809  0.88141097  0.43520444    -0.03500
Br639      Br  0.63911805  0.92529874  0.42008269    -0.03200
H640        H  0.65017584  0.89785151  0.48121287     0.08900
H641        H  0.67716151  0.79901053  0.41363569     0.06900
Br642      Br  0.68332435  0.76946404  0.47404110    -0.03700
C643        C  0.67061193  0.85354944  0.21600829    -0.10300
C644        C  0.67082995  0.88741249  0.22816021     0.05900
C645        C  0.66593583  0.91599368  0.20833721    -0.04100
C646        C  0.65836420  0.91039733  0.17763910    -0.08500
C647        C  0.65652931  0.87653876  0.16579935     0.05000
C648        C  0.66366627  0.84798198  0.18509881    -0.03500
Br649      Br  0.66016402  0.80077263  0.17099156    -0.03200
H650        H  0.67316756  0.83119458  0.23096669     0.08900
H651        H  0.65340029  0.93261697  0.16304058     0.06900
Br652      Br  0.66888547  0.96326754  0.22240706    -0.03700
C653        C  0.31040852  0.28838258  0.46051941    -0.10300
C654        C  0.29480229  0.26159321  0.44329929     0.05900
C655        C  0.25824969  0.26189360  0.43909920    -0.04100
C656        C  0.23801667  0.28629991  0.45430182    -0.08500
C657        C  0.25328904  0.31120953  0.47365055     0.05000
C658        C  0.29002365  0.31311016  0.47563280    -0.03500
Br659      Br  0.31361642  0.34602988  0.50129133    -0.03200
H660        H  0.33837707  0.28834802  0.46442144     0.08900
H661        H  0.20991227  0.28524519  0.45146146     0.06900
Br662      Br  0.23419874  0.22866522  0.41383255    -0.03700
C663        C  0.48264799  0.20234323  0.39912315    -0.10300
C664        C  0.45244263  0.19231816  0.38307775     0.05900
C665        C  0.45622813  0.17693216  0.35424124    -0.04100
C666        C  0.48931529  0.17022873  0.34298120    -0.08500
C667        C  0.51964029  0.17867341  0.35946346     0.05000
C668        C  0.51601596  0.19572406  0.38772201    -0.03500
Br669      Br  0.55478075  0.20967019  0.41294915    -0.03200
H670        H  0.48042889  0.21322402  0.42148855     0.08900
H671        H  0.49112042  0.15841256  0.32086745     0.06900
Br672      Br  0.41752051  0.16261210  0.32908119    -0.03700
C673        C  0.49255720  0.13681870  0.47164096    -0.10300
C674        C  0.46192723  0.14406053  0.48771108     0.05900
C675        C  0.46382423  0.14857003  0.01934107    -0.04100
C676        C  0.49625286  0.14815899  0.03384494    -0.08500
C677        C  0.52703163  0.14424087  0.01728542     0.05000
C678        C  0.52503941  0.13709578  0.48615908    -0.03500
Br679      Br  0.56571063  0.12716479  0.46266617    -0.03200
H680        H  0.49151285  0.13271969  0.44739337     0.08900
H681        H  0.49754029  0.15267302  0.05801601     0.06900
Br682      Br  0.42350351  0.15585021  0.04406685    -0.03700
C683        C  0.26826864  0.24282786  0.22789738    -0.10300
C684        C  0.29606980  0.25568156  0.21050195     0.05900
C685        C  0.29893397  0.29211907  0.20613457    -0.04100
C686        C  0.27400670  0.31459104  0.21864535    -0.08500
C687        C  0.24512973  0.30165694  0.23498065     0.05000
C688        C  0.24320290  0.26505954  0.24018321    -0.03500
Br689      Br  0.20808065  0.24276962  0.26456613    -0.03200
H690        H  0.26608940  0.21502524  0.23221496     0.08900
H691        H  0.27662134  0.34235189  0.21450068     0.06900
Br692      Br  0.33433045  0.31254669  0.18101844    -0.03700
C693        C  0.48328344  0.20030026  0.11766023    -0.10300
C694        C  0.48129460  0.18033008  0.14450530     0.05900
C695        C  0.51291935  0.16986187  0.15852530    -0.04100
C696        C  0.54473292  0.17884377  0.14546676    -0.08500
C697        C  0.54674361  0.19633191  0.11745481     0.05000
C698        C  0.51539606  0.20822045  0.10405201    -0.03500
Br699      Br  0.51396700  0.23384841  0.06663147    -0.03200
H700        H  0.45963255  0.20964456  0.10685685     0.08900
H701        H  0.56835025  0.16951684  0.15642177     0.06900
Br702      Br  0.51611032  0.14189867  0.19478762    -0.03700
C703        C  0.32616862  0.17167660  0.29944467    -0.10300
C704        C  0.33527666  0.14148142  0.28366674     0.05900
C705        C  0.33556208  0.10914173  0.29872022    -0.04100
C706        C  0.32881911  0.10771071  0.32975371    -0.08500
C707        C  0.32223968  0.13832949  0.34625131     0.05000
C708        C  0.32025689  0.17048557  0.33063769    -0.03500
Br709      Br  0.31575305  0.21425961  0.35115805    -0.03200
H710        H  0.32629729  0.19671088  0.28788897     0.08900
H711        H  0.33084243  0.08285714  0.34140667     0.06900
Br712      Br  0.34605296  0.06664267  0.27783708    -0.03700
C713        C  0.33106287  0.14391063  0.08241013    -0.10300
C714        C  0.32886848  0.17603744  0.09746532     0.05900
C715        C  0.32117987  0.20635292  0.08036583    -0.04100
C716        C  0.31877335  0.20447127  0.04881286    -0.08500
C717        C  0.32340526  0.17274971  0.03364531     0.05000
C718        C  0.32867217  0.14208294  0.05079938    -0.03500
Br719      Br  0.33819323  0.09801646  0.03229655    -0.03200
H720        H  0.33712764  0.12036778  0.09509974     0.08900
H721        H  0.31437820  0.22821951  0.03592763     0.06900
Br722      Br  0.31358088  0.25113723  0.09855957    -0.03700
C723        C  0.50383282  0.23681966  0.28199880    -0.10300
C724        C  0.53346112  0.23186779  0.26386783     0.05900
C725        C  0.52953113  0.23334141  0.23224014    -0.04100
C726        C  0.49598992  0.23347284  0.21932180    -0.08500
C727        C  0.46616647  0.23236444  0.23771234     0.05000
C728        C  0.47029845  0.23738497  0.26897777    -0.03500
Br729      Br  0.43057790  0.24489431  0.29409561    -0.03200
H730        H  0.50639696  0.23715572  0.30642375     0.08900
H731        H  0.49331349  0.23118901  0.19500936     0.06900
Br732      Br  0.56942910  0.23326925  0.20626148    -0.03700
C733        C  0.25580984  0.76148002  0.43675442    -0.10300
C734        C  0.29156603  0.75636670  0.43166840     0.05900
C735        C  0.30163121  0.72541521  0.41682280    -0.04100
C736        C  0.27591220  0.70174675  0.40613834    -0.08500
C737        C  0.23998338  0.70888050  0.40891294     0.05000
C738        C  0.23031949  0.73922355  0.42487762    -0.03500
Br739      Br  0.18294764  0.75357873  0.43123306    -0.03200
H740        H  0.24722062  0.78471090  0.44837927     0.08900
H741        H  0.28406601  0.67859984  0.39417777     0.06900
Br742      Br  0.34946299  0.71552385  0.40797698    -0.03700
C743        C  0.48393536  0.81538250  0.47560224    -0.10300
C744        C  0.45349621  0.82340838  0.49169040     0.05900
C745        C  0.45713849  0.83702461  0.02119287    -0.04100
C746        C  0.48996012  0.84598921  0.03253057    -0.08500
C747        C  0.52056818  0.83863590  0.01651981     0.05000
C748        C  0.51728488  0.82228005  0.48788198    -0.03500
Br749      Br  0.55676615  0.81069387  0.46336399    -0.03200
H750        H  0.48187208  0.80565646  0.45267609     0.08900
H751        H  0.49143534  0.85657470  0.05519038     0.06900
Br752      Br  0.41835144  0.84274878  0.04805491    -0.03700
C753        C  0.35641021  0.02863376  0.41849730    -0.10300
C754        C  0.33539132  0.04473467  0.44010247     0.05900
C755        C  0.31051805  0.02504343  0.45606293    -0.04100
C756        C  0.30942715  0.98884660  0.45224297    -0.08500
C757        C  0.33272937  0.97254418  0.43247195     0.05000
C758        C  0.35490646  0.99284693  0.41427416    -0.03500
Br759      Br  0.38371939  0.97290023  0.38346371    -0.03200
H760        H  0.37430215  0.04400525  0.40489966     0.08900
H761        H  0.29191155  0.97330617  0.46601771     0.06900
Br762      Br  0.27975666  0.04591092  0.48468159    -0.03700
C763        C  0.46001327  0.88099032  0.35947565    -0.10300
C764        C  0.46102856  0.88133520  0.39115513     0.05900
C765        C  0.49360571  0.88592868  0.40589987    -0.04100
C766        C  0.52432888  0.88217060  0.38944339    -0.08500
C767        C  0.52324348  0.87822585  0.35795132     0.05000
C768        C  0.49082646  0.88168033  0.34281715    -0.03500
Br769      Br  0.48633690  0.88896306  0.30013891    -0.03200
H770        H  0.43514805  0.88027411  0.34765933     0.08900
H771        H  0.54922777  0.88283577  0.40123920     0.06900
Br772      Br  0.49843321  0.89817905  0.44777623    -0.03700
C773        C  0.30170788  0.73678530  0.16604306    -0.10300
C774        C  0.29461553  0.77273813  0.16500522     0.05900
C775        C  0.26452714  0.78393733  0.14900469    -0.04100
C776        C  0.24159376  0.75942542  0.13636345    -0.08500
C777        C  0.24728532  0.72341579  0.13928107     0.05000
C778        C  0.27842195  0.71217405  0.15361360    -0.03500
Br779      Br  0.28958844  0.66388075  0.15970253    -0.03200
H780        H  0.32492603  0.72757434  0.17766048     0.08900
H781        H  0.21805554  0.76867213  0.12525238     0.06900
Br782      Br  0.25249942  0.83201142  0.14276208    -0.03700
C783        C  0.48380543  0.82143029  0.25629331    -0.10300
C784        C  0.48151110  0.84439778  0.23134578     0.05900
C785        C  0.51288752  0.85525539  0.21721265    -0.04100
C786        C  0.54489218  0.84449461  0.22898830    -0.08500
C787        C  0.54715224  0.82504699  0.25600219     0.05000
C788        C  0.51605689  0.81166200  0.26860846    -0.03500
Br789      Br  0.51507942  0.78166481  0.30351999    -0.03200
H790        H  0.46034138  0.81109775  0.26659181     0.08900
H791        H  0.56843986  0.85447323  0.21847115     0.06900
Br792      Br  0.51546537  0.88621956  0.18282108    -0.03700
C793        C  0.40150523  0.03156577  0.20111173    -0.10300
C794        C  0.37316930  0.05038265  0.18883987     0.05900
C795        C  0.34498655  0.03099917  0.17631759    -0.04100
C796        C  0.34587395  0.99429567  0.17597631    -0.08500
C797        C  0.37438102  0.97555442  0.18785830     0.05000
C798        C  0.40228330  0.99478995  0.20086089    -0.03500
Br799      Br  0.44119707  0.97245297  0.22034640    -0.03200
H800        H  0.42306195  0.04555588  0.21163983     0.08900
H801        H  0.32421521  0.98027707  0.16566624     0.06900
Br802      Br  0.30501346  0.05262561  0.15788737    -0.03700
C803        C  0.31756329  0.82213760  0.29464164    -0.10300
C804        C  0.32733643  0.85333491  0.28000297     0.05900
C805        C  0.32868000  0.88450605  0.29711502    -0.04100
C806        C  0.32434959  0.88306141  0.32861560    -0.08500
C807        C  0.31823635  0.85112240  0.34335590     0.05000
C808        C  0.31255194  0.82095541  0.32590631    -0.03500
Br809      Br  0.29809770  0.77749153  0.34386503    -0.03200
H810        H  0.31473878  0.79823809  0.28181031     0.08900
H811        H  0.32843155  0.90651730  0.34182330     0.06900
Br812      Br  0.33982738  0.92921096  0.27976215    -0.03700
C813        C  0.32051441  0.84665584  0.04714955    -0.10300
C814        C  0.31899548  0.87847529  0.03142068     0.05900
C815        C  0.32227527  0.91006576  0.04764225    -0.04100
C816        C  0.32964849  0.90940056  0.07855166    -0.08500
C817        C  0.33408846  0.87764971  0.09357507     0.05000
C818        C  0.32857459  0.84604797  0.07805817    -0.03500
Br819      Br  0.33734905  0.80171715  0.09693749    -0.03200
H820        H  0.31932439  0.82225098  0.03483488     0.08900
H821        H  0.33354043  0.93372072  0.09060436     0.06900
Br822      Br  0.32008271  0.95492959  0.02831112    -0.03700
C823        C  0.46556133  0.78650981  0.10927796    -0.10300
C824        C  0.46182753  0.78920015  0.14070746     0.05900
C825        C  0.49148708  0.78226994  0.15897922    -0.04100
C826        C  0.52487397  0.78455455  0.14639953    -0.08500
C827        C  0.52878739  0.78666893  0.11502132     0.05000
C828        C  0.49875959  0.78187016  0.09671153    -0.03500
Br829      Br  0.50169979  0.76635881  0.05571005    -0.03200
H830        H  0.44283452  0.78791697  0.09467533     0.08900
H831        H  0.54768734  0.78475141  0.16104514     0.06900
Br832      Br  0.48809518  0.76665186  0.19995516    -0.03700
O833        O  0.35235586  0.82359181  0.73854443    -0.82900
C834        C  0.34655161  0.87781404  0.62480307     0.96400
O835        O  0.32621746  0.86786326  0.64523795    -0.72100
O836        O  0.30873400  0.82692879  0.68905388    -0.75600
Al837      Al  0.33224616  0.87168218  0.68710317     1.49000
C838        C  0.31937931  0.79770307  0.67967663     0.91700
O839        O  0.42004475  0.79779968  0.67956472    -0.81900
O840        O  0.44463098  0.86575296  0.69207942    -0.75400
Al841      Al  0.38463655  0.81529144  0.70597705     1.90100
O842        O  0.41884604  0.83381325  0.64131963    -0.74500
O843        O  0.40242410  0.91983702  0.68258125    -0.74300
O844        O  0.37752205  0.88736618  0.63064344    -0.80000
O845        O  0.34548988  0.92021987  0.68418897    -0.78200
O846        O  0.37524652  0.85440990  0.68565118    -1.14300
O847        O  0.33390798  0.87670208  0.72994519    -0.73500
C848        C  0.33842490  0.85141732  0.74788795     0.97200
C849        C  0.43081886  0.80664946  0.65379419     0.93600
Al850      Al  0.40802093  0.87525050  0.66363330     1.55600
O851        O  0.35114735  0.78970834  0.68284121    -0.78200
C852        C  0.37428917  0.93648500  0.68523514     0.97700
C853        C  0.44664285  0.85093258  0.71767330     0.92600
O854        O  0.41972096  0.83748555  0.72964094    -0.83500
O855        O  0.40716380  0.85153978  0.89672883    -0.82900
C856        C  0.32558453  0.87812039  0.99877057     0.96400
O857        O  0.35099687  0.89628930  0.98969921    -0.72100
O858        O  0.40040397  0.85161161  0.98431285    -0.75600
Al859      Al  0.38418459  0.88695774  0.95917471     1.49000
C860        C  0.42004938  0.82798030  0.97502977     0.91700
O861        O  0.34761058  0.78656533  0.93806278    -0.81900
O862        O  0.31255067  0.87022054  0.89445790    -0.75400
Al863      Al  0.37694497  0.82176356  0.91920094     1.90100
O864        O  0.29971695  0.81690322  0.93334701    -0.74500
O865        O  0.31371133  0.91440379  0.94068373    -0.74300
O866        O  0.30867347  0.85870882  0.98061574    -0.80000
O867        O  0.36970955  0.92468547  0.93565756    -0.78200
O868        O  0.35775678  0.85739420  0.93857702    -1.14300
O869        O  0.42422284  0.88492958  0.93392423    -0.73500
C870        C  0.42885438  0.87284695  0.90790009     0.97200
C871        C  0.31462062  0.78775817  0.93543701     0.93600
Al872      Al  0.31205911  0.86433526  0.93742582     1.55600
O873        O  0.41398866  0.81367661  0.94954414    -0.78200
C874        C  0.33869518  0.93518102  0.93545355     0.97700
C875        C  0.32515488  0.84837518  0.87613480     0.92600
O876        O  0.34565731  0.82457392  0.88513426    -0.83500
O877        O  0.35319087  0.20508334  0.64006909    -0.82900
C878        C  0.34740000  0.14497338  0.75242678     0.96400
O879        O  0.32700818  0.15700286  0.73261340    -0.72100
O880        O  0.31008513  0.20033471  0.68967244    -0.75600
Al881      Al  0.33247322  0.15517531  0.69034105     1.49000
C882        C  0.32125374  0.23015426  0.69782727     0.91700
O883        O  0.42285691  0.22767032  0.69921887    -0.81900
O884        O  0.44499305  0.15998236  0.68474480    -0.75400
Al885      Al  0.38611412  0.21176276  0.67259782     1.90100
O886        O  0.42049701  0.19037270  0.73655215    -0.74500
O887        O  0.40169916  0.10603897  0.69371739    -0.74300
O888        O  0.37842108  0.13671591  0.74611537    -0.80000
O889        O  0.34477118  0.10618271  0.69187445    -0.78200
O890        O  0.37590285  0.17199347  0.69209102    -1.14300
O891        O  0.33341453  0.15195406  0.64730214    -0.73500
C892        C  0.33852009  0.17780359  0.63000320     0.97200
C893        C  0.43361840  0.21739335  0.72470702     0.93600
Al894      Al  0.40859303  0.14996253  0.71337854     1.55600
O895        O  0.35342228  0.23748591  0.69596731    -0.78200
C896        C  0.37316928  0.08957881  0.69107325     0.97700
C897        C  0.44678078  0.17535047  0.65932796     0.92600
O898        O  0.42005548  0.18995302  0.64814235    -0.83500
O899        O  0.40831498  0.17267303  0.97949793    -0.82900
C900        C  0.32661095  0.13713331  0.87944975     0.96400
O901        O  0.35070516  0.11804339  0.88976482    -0.72100
O902        O  0.40035112  0.16299634  0.89260186    -0.75600
Al903      Al  0.38462805  0.12996229  0.92003197     1.49000
C904        C  0.41946845  0.18819022  0.89997239     0.91700
O905        O  0.34750021  0.23012322  0.93338430    -0.81900
O906        O  0.31509078  0.14994817  0.98367949    -0.75400
Al907      Al  0.37737684  0.19862222  0.95506872     1.90100
O908        O  0.29968262  0.20057367  0.94271835    -0.74500
O909        O  0.31473977  0.10260340  0.93911646    -0.74300
O910        O  0.30892450  0.15601680  0.89714387    -0.80000
O911        O  0.37061355  0.09392701  0.94598003    -0.78200
O912        O  0.35840611  0.16070245  0.93862056    -1.14300
O913        O  0.42480953  0.13515256  0.94547730    -0.73500
C914        C  0.42958635  0.15028476  0.97043352     0.97200
C915        C  0.31489934  0.22932157  0.93785885     0.93600
Al916      Al  0.31280522  0.15291123  0.94052352     1.55600
O917        O  0.41354493  0.20479818  0.92424583    -0.78200
C918        C  0.34000193  0.08222414  0.94376013     0.97700
C919        C  0.32826802  0.17349869  0.50050267     0.92600
O920        O  0.34681623  0.19801564  0.48949718    -0.83500
O921        O  0.64710708  0.80997310  0.52214526    -0.82900
C922        C  0.64650166  0.87159851  0.63362840     0.96400
O923        O  0.66765791  0.85722393  0.61587335    -0.72100
O924        O  0.68688841  0.81443177  0.57287207    -0.75600
Al925      Al  0.66581986  0.85942305  0.57288615     1.49000
C926        C  0.67470807  0.78624767  0.58331267     0.91700
O927        O  0.57391882  0.79005182  0.57834613    -0.81900
O928        O  0.55468887  0.85945266  0.55795991    -0.75400
Al929      Al  0.61218024  0.80410097  0.55313346     1.90100
O930        O  0.57232497  0.83067610  0.61286248    -0.74500
O931        O  0.60020481  0.91142726  0.56747913    -0.74300
O932        O  0.61702120  0.88225520  0.62412170    -0.80000
O933        O  0.65649636  0.90786773  0.57360173    -0.78200
O934        O  0.62187504  0.84433836  0.57177466    -1.14300
O935        O  0.66654954  0.86317996  0.53008087    -0.73500
C936        C  0.65988547  0.83836362  0.51217596     0.97200
C937        C  0.56094289  0.80227289  0.60212481     0.93600
Al938      Al  0.58877804  0.86908018  0.58907971     1.55600
O939        O  0.64270726  0.77902535  0.57975646    -0.78200
C940        C  0.62995401  0.92582450  0.56796590     0.97700
C941        C  0.55415639  0.84230437  0.53340720     0.92600
O942        O  0.58036057  0.82485543  0.52558140    -0.83500
O943        O  0.57801362  0.85014880  0.85418430    -0.82900
C944        C  0.66575338  0.89157044  0.76121265     0.96400
O945        O  0.64002677  0.90933822  0.76950236    -0.72100
O946        O  0.59739552  0.85671999  0.76794323    -0.75600
Al947      Al  0.60405353  0.89263737  0.79573071     1.49000
C948        C  0.57890668  0.83071027  0.77471543     0.91700
O949        O  0.65064691  0.79713511  0.81697454    -0.81900
O950        O  0.66869645  0.88083819  0.86714603    -0.75400
Al951      Al  0.61452228  0.82620707  0.83402375     1.90100
O952        O  0.69322259  0.83303132  0.82828197    -0.74500
O953        O  0.66641024  0.92820707  0.82251816    -0.74300
O954        O  0.68351012  0.87506593  0.78089617    -0.80000
O955        O  0.60926309  0.93063462  0.82220476    -0.78200
O956        O  0.63109111  0.86562617  0.81834421    -1.14300
O957        O  0.56140149  0.88293926  0.81622652    -0.73500
C958        C  0.55590213  0.87016575  0.84201218     0.97200
C959        C  0.68263213  0.80239418  0.82352737     0.93600
Al960      Al  0.67491351  0.87850331  0.82413631     1.55600
O961        O  0.58344239  0.81556085  0.80003547    -0.78200
C962        C  0.63844628  0.94530347  0.82577615     0.97700
C963        C  0.65711401  0.85546723  0.88289687     0.92600
O964        O  0.64036815  0.83045580  0.87084188    -0.83500
O965        O  0.58355438  0.16903306  0.52104214    -0.82900
C966        C  0.66643587  0.13002062  0.62021585     0.96400
O967        O  0.63995964  0.11358783  0.61077511    -0.72100
O968        O  0.59795202  0.16592853  0.60823934    -0.75600
Al969      Al  0.60611944  0.12920833  0.58196130     1.49000
C970        C  0.57928512  0.19105208  0.59991481     0.91700
O971        O  0.65368012  0.22603707  0.55946211    -0.81900
O972        O  0.67623812  0.14009885  0.51488346    -0.75400
Al973      Al  0.61858452  0.19442570  0.54243437     1.90100
O974        O  0.69703748  0.18995827  0.55414809    -0.74500
O975        O  0.66989282  0.09297831  0.55993947    -0.74300
O976        O  0.68474261  0.14744838  0.60161222    -0.80000
O977        O  0.61279603  0.09037352  0.55682374    -0.78200
O978        O  0.63458621  0.15597488  0.56050208    -1.14300
O979        O  0.56475051  0.13774940  0.55905004    -0.73500
C980        C  0.56047465  0.14999382  0.53288426     0.97200
C981        C  0.68602497  0.22102440  0.55489980     0.93600
Al982      Al  0.67879406  0.14354597  0.55803482     1.55600
O983        O  0.58512550  0.20582868  0.57455419    -0.78200
C984        C  0.64189042  0.07550706  0.55552186     0.97700
C985        C  0.66561278  0.16463755  0.99781381     0.92600
O986        O  0.64637966  0.18864342  0.50769432    -0.83500
O987        O  0.64653067  0.20343313  0.86204790    -0.82900
C988        C  0.65044764  0.14821411  0.74768813     0.96400
O989        O  0.67036017  0.16413720  0.76595307    -0.72100
O990        O  0.68810416  0.20432270  0.81172455    -0.75600
Al991      Al  0.66765294  0.15926924  0.80863095     1.49000
C992        C  0.67650913  0.23463723  0.80701279     0.91700
O993        O  0.57575955  0.22697006  0.80346647    -0.81900
O994        O  0.55461431  0.15874866  0.81869208    -0.75400
Al995      Al  0.61294388  0.21167709  0.83024783     1.90100
O996        O  0.57744828  0.18906680  0.76642763    -0.74500
O997        O  0.60100992  0.10767370  0.81170545    -0.74300
O998        O  0.62090870  0.13673842  0.75634199    -0.80000
O999        O  0.65751868  0.11103556  0.80575710    -0.78200
O1000       O  0.62372329  0.17365464  0.80945574    -1.14300
O1001       O  0.66866916  0.15246671  0.85083150    -0.73500
C1002       C  0.66178423  0.17551585  0.86999225     0.97200
C1003       C  0.56498586  0.21638026  0.77793989     0.93600
Al1004     Al  0.59110655  0.14973718  0.78990574     1.55600
O1005       O  0.64419121  0.24016569  0.80795602    -0.78200
C1006       C  0.63061844  0.09339524  0.81170932     0.97700
C1007       C  0.55368876  0.17367763  0.84423989     0.92600
O1008       O  0.58076964  0.18782016  0.85481226    -0.83500
O1009       O  0.83563928  0.59930417  0.58777365    -0.82900
C1010       C  0.87095737  0.68158646  0.68815866     0.96400
O1011       O  0.88634241  0.65484308  0.67909303    -0.72100
O1012       O  0.83636009  0.61029379  0.67612191    -0.75600
Al1013     Al  0.87300119  0.62130411  0.65029312     1.49000
C1014       C  0.81467825  0.58796738  0.66712871     0.91700
O1015       O  0.77666954  0.65955286  0.63164672    -0.81900
O1016       O  0.85847067  0.69083464  0.58343894    -0.75400
Al1017     Al  0.80807422  0.62976682  0.61095394     1.90100
O1018       O  0.80779275  0.70719320  0.62384511    -0.74500
O1019       O  0.90615149  0.68799487  0.62801903    -0.74300
O1020       O  0.85248525  0.69924785  0.66985310    -0.80000
O1021       O  0.91099619  0.63113794  0.62606359    -0.78200
O1022       O  0.84548995  0.64826719  0.62897039    -1.14300
O1023       O  0.86701269  0.58087874  0.62617356    -0.73500
C1024       C  0.85584479  0.57718766  0.59951435     0.97200
C1025       C  0.77851373  0.69227699  0.62780263     0.93600
Al1026     Al  0.85539361  0.69327091  0.62643120     1.55600
O1027       O  0.80013307  0.59241539  0.64143116    -0.78200
C1028       C  0.92471904  0.66089427  0.62473315     0.97700
C1029       C  0.83413666  0.67977727  0.56634908     0.92600
O1030       O  0.80951100  0.66103255  0.57668990    -0.83500
O1031       O  0.80199562  0.66119893  0.92721982    -0.82900
C1032       C  0.86097830  0.66810301  0.81555929     0.96400
O1033       O  0.84776288  0.68823913  0.83467077    -0.72100
O1034       O  0.80608414  0.70507622  0.87866089    -0.75600
Al1035     Al  0.85105319  0.68247486  0.87705875     1.49000
C1036       C  0.77658215  0.69452140  0.86901453     0.91700
O1037       O  0.77874623  0.59255716  0.86661703    -0.81900
O1038       O  0.84580644  0.56888586  0.88408340    -0.75400
Al1039     Al  0.79428913  0.62879673  0.89420224     1.90100
O1040       O  0.81764531  0.59570236  0.83095685    -0.74500
O1041       O  0.89992126  0.61351990  0.87711587    -0.74300
O1042       O  0.87084691  0.63765019  0.82315142    -0.80000
O1043       O  0.90025245  0.67043706  0.87501702    -0.78200
O1044       O  0.83431878  0.63897925  0.87573448    -1.14300
O1045       O  0.85544857  0.68039632  0.91962864    -0.73500
C1046       C  0.83037325  0.67425608  0.93724639     0.97200
C1047       C  0.79043567  0.58205763  0.84162545     0.93600
Al1048     Al  0.85688083  0.60658011  0.85555536     1.55600
O1049       O  0.76931977  0.66230581  0.87018118    -0.78200
C1050       C  0.91666154  0.64206375  0.87819302     0.97700
C1051       C  0.82984007  0.56714261  0.90928331     0.92600
O1052       O  0.81477359  0.59391524  0.91928517    -0.83500
O1053       O  0.17324133  0.59975986  0.67394973    -0.82900
C1054       C  0.12406633  0.67749510  0.57605419     0.96400
O1055       O  0.10810188  0.65095275  0.58640124    -0.72100
O1056       O  0.15808144  0.60725077  0.58733855    -0.75600
Al1057     Al  0.12494555  0.61802158  0.61607964     1.49000
C1058       C  0.18548388  0.59109278  0.59350741     0.91700
O1059       O  0.22064730  0.66774157  0.62775946    -0.81900
O1060       O  0.13867352  0.68931087  0.67898887    -0.75400
Al1061     Al  0.19370490  0.63387893  0.64947603     1.90100
O1062       O  0.18695984  0.71140484  0.63888903    -0.74500
O1063       O  0.09133137  0.68418723  0.63522142    -0.74300
O1064       O  0.14269222  0.69656973  0.59330168    -0.80000
O1065       O  0.08797885  0.62774406  0.64303483    -0.78200
O1066       O  0.15335805  0.64787582  0.63409645    -1.14300
O1067       O  0.13772300  0.57739171  0.64067917    -0.73500
C1068       C  0.15774183  0.57366422  0.66348583     0.97200
C1069       C  0.21702757  0.69968227  0.63379318     0.93600
Al1070     Al  0.14090975  0.69226155  0.63638247     1.55600
O1071       O  0.20287911  0.59890574  0.61734665    -0.78200
C1072       C  0.07329479  0.65712720  0.64055171     0.97700
C1073       C  0.16321328  0.67868593  0.69593252     0.92600
O1074       O  0.18982692  0.66360988  0.68485288    -0.83500
O1075       O  0.18674994  0.65796900  0.83662682    -0.82900
C1076       C  0.13011115  0.66037317  0.94888549     0.96400
O1077       O  0.13904603  0.68188987  0.92871887    -0.72100
O1078       O  0.18393562  0.69775955  0.88673114    -0.75600
Al1079     Al  0.13734268  0.67752129  0.88608298     1.49000
C1080       C  0.21306697  0.68515708  0.89513285     0.91700
O1081       O  0.20554851  0.58407525  0.88990654    -0.81900
O1082       O  0.13359199  0.56675312  0.87623147    -0.75400
Al1083     Al  0.19073051  0.62292330  0.86658925     1.90100
O1084       O  0.17096367  0.58446224  0.92851936    -0.74500
O1085       O  0.08498283  0.61059668  0.89165598    -0.74300
O1086       O  0.12246117  0.62908929  0.94259499    -0.80000
O1087       O  0.08771958  0.66710353  0.88645273    -0.78200
O1088       O  0.15226190  0.63358919  0.88709612    -1.14300
O1089       O  0.13425837  0.67808217  0.84247771    -0.73500
C1090       C  0.16042892  0.67295704  0.82584014     0.97200
C1091       C  0.19722281  0.57243836  0.91535270     0.93600
Al1092     Al  0.12991314  0.60062753  0.90796900     1.55600
O1093       O  0.21906123  0.65285936  0.89164400    -0.78200
C1094       C  0.06991130  0.63918269  0.88697489     0.97700
C1095       C  0.14484741  0.56801578  0.84926331     0.92600
O1096       O  0.16487758  0.59256882  0.84061959    -0.83500
O1097       O  0.80987713  0.36297351  0.71230339    -0.82900
C1098       C  0.86557923  0.35993680  0.82671918     0.96400
O1099       O  0.85015202  0.33977290  0.80838015    -0.72100
O1100       O  0.80979126  0.32262869  0.76223307    -0.75600
Al1101     Al  0.85514932  0.34305807  0.76571788     1.49000
C1102       C  0.78093887  0.33480468  0.77052675     0.91700
O1103       O  0.78736448  0.43565332  0.76834038    -0.81900
O1104       O  0.85668361  0.45538295  0.75330834    -0.75400
Al1105     Al  0.80240584  0.39753715  0.74336102     1.90100
O1106       O  0.82481274  0.43536213  0.80595573    -0.74500
O1107       O  0.90781079  0.40867969  0.76424699    -0.74300
O1108       O  0.87552101  0.39023244  0.81838315    -0.80000
O1109       O  0.90381612  0.35225519  0.76981061    -0.78200
O1110       O  0.84078701  0.38712454  0.76447938    -1.14300
O1111       O  0.86205490  0.34312191  0.72339403    -0.73500
C1112       C  0.83859394  0.34979113  0.70413153     0.97200
C1113       C  0.79785657  0.44773404  0.79334874     0.93600
Al1114     Al  0.86454797  0.41975649  0.78387037     1.55600
O1115       O  0.77485000  0.36698702  0.76757901    -0.78200
C1116       C  0.92208280  0.37894544  0.76469365     0.97700
C1117       C  0.84099445  0.45637481  0.72790639     0.92600
O1118       O  0.82596798  0.42935167  0.71786214    -0.83500
O1119       O  0.84438846  0.42423404  0.55058488    -0.82900
C1120       C  0.88342992  0.34111720  0.95379857     0.96400
O1121       O  0.90025784  0.36780452  0.96253659    -0.72100
O1122       O  0.85096830  0.41326499  0.96384815    -0.75600
Al1123     Al  0.88649287  0.40223819  0.99110808     1.49000
C1124       C  0.82565169  0.43182829  0.97118001     0.91700
O1125       O  0.78900604  0.35527692  0.50998831    -0.81900
O1126       O  0.87477650  0.33464809  0.55909704    -0.75400
Al1127     Al  0.81981159  0.39015567  0.52848023     1.90100
O1128       O  0.82427695  0.31218764  0.52020321    -0.74500
O1129       O  0.92166158  0.33728929  0.51374057    -0.74300
O1130       O  0.86672634  0.32279297  0.97290143    -0.80000
O1131       O  0.92503504  0.39404183  0.01667214    -0.78200
O1132       O  0.85878251  0.37414507  0.51192577    -1.14300
O1133       O  0.87885840  0.44279530  0.51461940    -0.73500
C1134       C  0.86471185  0.44691636  0.53992746     0.97200
C1135       C  0.79352591  0.32303768  0.51606225     0.93600
Al1136     Al  0.87091924  0.32991018  0.51608382     1.55600
O1137       O  0.80982415  0.42512025  0.49591855    -0.78200
C1138       C  0.93971535  0.36486913  0.51778275     0.97700
C1139       C  0.84972944  0.34484867  0.57544346     0.92600
O1140       O  0.82424111  0.36162444  0.56418084    -0.83500
O1141       O  0.20071516  0.36073512  0.55277361    -0.82900
C1142       C  0.14723920  0.36287012  0.93800321     0.96400
O1143       O  0.16109012  0.34147360  0.95602478    -0.72100
O1144       O  0.20101369  0.32081648  0.00025308    -0.75600
Al1145     Al  0.15594181  0.34156125  0.99816091     1.49000
C1146       C  0.22950425  0.33369722  0.99130887     0.91700
O1147       O  0.22458803  0.43382273  0.99521446    -0.81900
O1148       O  0.15521139  0.45413224  0.51291222    -0.75400
Al1149     Al  0.20939214  0.39581976  0.52124497     1.90100
O1150       O  0.18416345  0.43449525  0.95982339    -0.74500
O1151       O  0.10339026  0.40662750  0.00392767    -0.74300
O1152       O  0.13318508  0.39065692  0.94751356    -0.80000
O1153       O  0.10726884  0.35078269  0.49526762    -0.78200
O1154       O  0.17025901  0.38581240  0.00087084    -1.14300
O1155       O  0.14974498  0.33865261  0.53991163    -0.73500
C1156       C  0.17238631  0.34502851  0.55986279     0.97200
C1157       C  0.21262021  0.44586784  0.97057735     0.93600
Al1158     Al  0.14567295  0.41879238  0.98271155     1.55600
O1159       O  0.23630666  0.36541624  0.49627547    -0.78200
C1160       C  0.08919659  0.37669238  0.50249360     0.97700
C1161       C  0.17244668  0.45547177  0.53755863     0.92600
O1162       O  0.18767315  0.42847777  0.54722702    -0.83500
O1163       O  0.18744913  0.36070763  0.79760138    -0.82900
C1164       C  0.13571786  0.34179337  0.68544505     0.96400
O1165       O  0.14618134  0.32288230  0.70700025    -0.72100
O1166       O  0.18745953  0.31374248  0.75288992    -0.75600
Al1167     Al  0.14023832  0.33148946  0.74911267     1.49000
C1168       C  0.21656034  0.32616713  0.74414042     0.91700
O1169       O  0.20240647  0.42932077  0.73333694    -0.81900
O1170       O  0.13456237  0.44424885  0.74715216    -0.75400
Al1171     Al  0.19143843  0.39164667  0.76311180     1.90100
O1172       O  0.16789633  0.41214482  0.69787354    -0.74500
O1173       O  0.08758229  0.39669215  0.74157270    -0.74300
O1174       O  0.11817413  0.36890887  0.69072126    -0.80000
O1175       O  0.08936523  0.34002075  0.74619652    -0.78200
O1176       O  0.15307221  0.37557711  0.74477874    -1.14300
O1177       O  0.13550002  0.33715278  0.79161738    -0.73500
C1178       C  0.15994936  0.34738007  0.80887482     0.97200
C1179       C  0.18854587  0.43458086  0.70749663     0.93600
Al1180     Al  0.12883233  0.40344875  0.72102478     1.55600
O1181       O  0.22071222  0.35913197  0.74225157    -0.78200
C1182       C  0.07248227  0.36853911  0.74754738     0.97700
C1183       C  0.14564177  0.44681143  0.77426120     0.92600
O1184       O  0.16537683  0.42384981  0.78554237    -0.83500
C1185       C  0.18507771  0.35779085  0.85996816    -0.10300
C1186       C  0.15658879  0.34588981  0.84244682     0.05900
C1187       C  0.12511485  0.33690720  0.85752489    -0.04100
C1188       C  0.12215170  0.34270830  0.88877672    -0.08500
C1189       C  0.15022464  0.35645429  0.90543592     0.05000
C1190       C  0.18218239  0.36272514  0.89104617    -0.03500
Br1191     Br  0.22264090  0.37879121  0.91287439    -0.03200
H1192       H  0.20973380  0.36428480  0.84941529     0.08900
H1193       H  0.09785429  0.33654186  0.90010782     0.06900
Br1194     Br  0.08497514  0.31722660  0.83741331    -0.03700
C1195       C  0.18944589  0.34485682  0.61413367    -0.10300
C1196       C  0.16471871  0.33597322  0.59198983     0.05900
C1197       C  0.13186490  0.32249055  0.60164417    -0.04100
C1198       C  0.12307179  0.32310179  0.63243564    -0.08500
C1199       C  0.14708330  0.33476048  0.65415897     0.05000
C1200       C  0.18114545  0.34380984  0.64477700    -0.03500
Br1201     Br  0.21740553  0.35762455  0.67195310    -0.03200
H1202       H  0.21511280  0.35415669  0.60762207     0.08900
H1203       H  0.09715363  0.31504672  0.63937856     0.06900
Br1204     Br  0.09738823  0.30285800  0.57472227    -0.03700
C1205       C  0.03377740  0.39493662  0.52757202    -0.10300
C1206       C  0.05128928  0.37132140  0.50886455     0.05900
C1207       C  0.03211255  0.34242194  0.99713397    -0.04100
C1208       C  0.99618262  0.33937103  0.00228966    -0.08500
C1209       C  0.97845312  0.36410598  0.51944517     0.05000
C1210       C  0.99795918  0.39113208  0.53339989    -0.03500
Br1211     Br  0.97723182  0.42253052  0.56176720    -0.03200
H1212       H  0.04805019  0.41629758  0.53797944     0.08900
H1213       H  0.98172035  0.31842376  0.99144243     0.06900
Br1214     Br  0.05208133  0.30684128  0.97217206    -0.03700
C1215       C  0.98218547  0.40392201  0.76631782    -0.10300
C1216       C  0.96052846  0.37509211  0.76058598     0.05900
C1217       C  0.97642710  0.34308131  0.75240195    -0.04100
C1218       C  0.01287753  0.34100883  0.74951264    -0.08500
C1219       C  0.03441774  0.37018983  0.75451631     0.05000
C1220       C  0.01846396  0.40186163  0.76364681    -0.03500
Br1221     Br  0.04391203  0.44376765  0.77392038    -0.03200
H1222       H  0.97084532  0.42837821  0.77338651     0.08900
H1223       H  0.02431886  0.31664992  0.74233211     0.06900
Br1224     Br  0.95042759  0.30135424  0.74306869    -0.03700
C1225       C  0.84844655  0.32780347  0.87413132    -0.10300
C1226       C  0.87307734  0.34792847  0.85804508     0.05900
C1227       C  0.90463450  0.35712143  0.87257975    -0.04100
C1228       C  0.90911878  0.35028102  0.90336005    -0.08500
C1229       C  0.88255674  0.33456119  0.92061960     0.05000
C1230       C  0.85300210  0.32090050  0.90525465    -0.03500
Br1231     Br  0.81712067  0.29487019  0.92563024    -0.03200
H1232       H  0.82471450  0.31905576  0.86289569     0.08900
H1233       H  0.93277642  0.35964811  0.91433421     0.06900
Br1234     Br  0.94258453  0.37967764  0.85185164    -0.03700
C1235       C  0.81615093  0.33051610  0.65434837    -0.10300
C1236       C  0.84437198  0.34256264  0.67179132     0.05900
C1237       C  0.87636590  0.35040825  0.65738101    -0.04100
C1238       C  0.87876040  0.34804540  0.62580568    -0.08500
C1239       C  0.84961770  0.33834652  0.60831731     0.05000
C1240       C  0.81863245  0.32807865  0.62297003    -0.03500
Br1241     Br  0.77874341  0.31060841  0.60122849    -0.03200
H1242       H  0.79169671  0.32373148  0.66513513     0.08900
H1243       H  0.90260152  0.35633492  0.61476608     0.06900
Br1244     Br  0.91618088  0.36874451  0.67887259    -0.03700
C1245       C  0.22411305  0.54014769  0.95878519    -0.10300
C1246       C  0.21553163  0.54174913  0.92791383     0.05900
C1247       C  0.22008797  0.51156251  0.91011822    -0.04100
C1248       C  0.22511201  0.47934509  0.92427499    -0.08500
C1249       C  0.22819765  0.47693207  0.95578956     0.05000
C1250       C  0.23269843  0.50810430  0.97232111    -0.03500
Br1251     Br  0.25011877  0.50823648  0.01300021    -0.03200
H1252       H  0.22336893  0.56353102  0.97242049     0.08900
H1253       H  0.22312264  0.45588376  0.91088135     0.06900
Br1254     Br  0.21550526  0.51119972  0.86689645    -0.03700
C1255       C  0.13191129  0.50523692  0.84171948    -0.10300
C1256       C  0.13713968  0.53837298  0.82877691     0.05900
C1257       C  0.13825287  0.54136412  0.79694689    -0.04100
C1258       C  0.13867715  0.51116631  0.77910641    -0.08500
C1259       C  0.13767316  0.47789020  0.79256070     0.05000
C1260       C  0.13242077  0.47520420  0.82403351    -0.03500
Br1261     Br  0.12600301  0.43136152  0.84440638    -0.03200
H1262       H  0.12968340  0.50234366  0.86604290     0.08900
H1263       H  0.14135961  0.51371812  0.75480033     0.06900
Br1264     Br  0.13792883  0.58580540  0.77676120    -0.03700
C1265       C  0.09562207  0.67010427  0.99478534    -0.10300
C1266       C  0.12800960  0.67175375  0.98043899     0.05900
C1267       C  0.15806459  0.68086987  0.99727059    -0.04100
C1268       C  0.15539372  0.68721996  0.52831879    -0.08500
C1269       C  0.12335609  0.68304355  0.54311652     0.05000
C1270       C  0.09307786  0.67543604  0.52591931    -0.03500
Br1271     Br  0.04789943  0.67010370  0.54396492    -0.03200
H1272       H  0.07242888  0.66307996  0.98192654     0.08900
H1273       H  0.17903161  0.69169210  0.54140790     0.06900
Br1274     Br  0.20395458  0.67847441  0.98044286    -0.03700
C1275       C  0.19248470  0.68514850  0.74564053    -0.10300
C1276       C  0.16120760  0.68342738  0.72913500     0.05900
C1277       C  0.12923416  0.68340405  0.74505551    -0.04100
C1278       C  0.12936204  0.68295049  0.77679726    -0.08500
C1279       C  0.16082616  0.68216064  0.79320883     0.05000
C1280       C  0.19267078  0.68479886  0.77717801    -0.03500
Br1281     Br  0.23785343  0.68759765  0.79641739    -0.03200
H1282       H  0.21723712  0.68598301  0.73388462     0.08900
H1283       H  0.10474371  0.68075612  0.78859823     0.06900
Br1284     Br  0.08451472  0.67986812  0.72539689    -0.03700
C1285       C  0.19945119  0.49882617  0.70881142    -0.10300
C1286       C  0.18750972  0.46963538  0.69266521     0.05900
C1287       C  0.16667185  0.47546837  0.66629844    -0.04100
C1288       C  0.15667449  0.50923557  0.65824731    -0.08500
C1289       C  0.16696652  0.53830804  0.67528902     0.05000
C1290       C  0.18975745  0.53279389  0.70043861    -0.03500
Br1291     Br  0.20858026  0.56962503  0.72523658    -0.03200
H1292       H  0.21510411  0.49516291  0.72928580     0.08900
H1293       H  0.14066201  0.51268193  0.63810372     0.06900
Br1294     Br  0.14850078  0.43909041  0.64036709    -0.03700
C1295       C  0.16654029  0.52019710  0.53714413    -0.10300
C1296       C  0.17802577  0.49017054  0.55266070     0.05900
C1297       C  0.19918795  0.49524323  0.57892313    -0.04100
C1298       C  0.20457343  0.52901562  0.59064156    -0.08500
C1299       C  0.19125829  0.55861520  0.57585539     0.05000
C1300       C  0.17405436  0.55378454  0.54770735    -0.03500
Br1301     Br  0.16021884  0.59206768  0.52213750    -0.03200
H1302       H  0.15263685  0.51779256  0.51582437     0.08900
H1303       H  0.21810412  0.53193862  0.61209352     0.06900
Br1304     Br  0.22342741  0.45824653  0.59939373    -0.03700
C1305       C  0.83845581  0.50245952  0.91110147    -0.10300
C1306       C  0.82654450  0.53260950  0.92559574     0.05900
C1307       C  0.80939704  0.52804998  0.95382628    -0.04100
C1308       C  0.80668764  0.49459149  0.96729987    -0.08500
C1309       C  0.82006716  0.46472513  0.95310710     0.05000
C1310       C  0.83538758  0.46919925  0.92415373    -0.03500
Br1311     Br  0.85368963  0.43121232  0.90085637    -0.03200
H1312       H  0.85063109  0.50461424  0.88867887     0.08900
H1313       H  0.79557504  0.49227032  0.98937090     0.06900
Br1314     Br  0.78919056  0.56591512  0.97590274    -0.03700
C1315       C  0.97437774  0.61224719  0.87201585    -0.10300
C1316       C  0.95587710  0.64195223  0.88128810     0.05900
C1317       C  0.97562898  0.67107548  0.89161318    -0.04100
C1318       C  0.01239475  0.66978741  0.89267282    -0.08500
C1319       C  0.03080666  0.64001166  0.88350694     0.05000
C1320       C  0.01110129  0.61110810  0.87276984    -0.03500
Br1321     Br  0.03254530  0.56995796  0.85681085    -0.03200
H1322       H  0.96017864  0.58981917  0.86328823     0.08900
H1323       H  0.02669678  0.69217323  0.90130913     0.06900
Br1324     Br  0.95441292  0.71314962  0.90578513    -0.03700
C1325       C  0.77436594  0.51975010  0.84746381    -0.10300
C1326       C  0.77760277  0.54894137  0.82819228     0.05900
C1327       C  0.77820972  0.54346957  0.79673477    -0.04100
C1328       C  0.78024333  0.50937697  0.78536613    -0.08500
C1329       C  0.78254608  0.48047346  0.80506543     0.05000
C1330       C  0.77699671  0.48573038  0.83608451    -0.03500
Br1331     Br  0.77331893  0.44707092  0.86344157    -0.03200
H1332       H  0.77314818  0.52333036  0.87170864     0.08900
H1333       H  0.78321100  0.50575812  0.76125782     0.06900
Br1334     Br  0.77867532  0.58207164  0.76890307    -0.03700
C1335       C  0.83209235  0.55356856  0.71191470    -0.10300
C1336       C  0.81443717  0.55407554  0.68385524     0.05900
C1337       C  0.80621451  0.52176264  0.67015325    -0.04100
C1338       C  0.81658809  0.49046788  0.68419102    -0.08500
C1339       C  0.83539591  0.49024054  0.71182957     0.05000
C1340       C  0.84306574  0.52267703  0.72560117    -0.03500
Br1341     Br  0.86837477  0.52818335  0.76311378    -0.03200
H1342       H  0.83917592  0.57787283  0.72290412     0.08900
H1343       H  0.80967476  0.46605576  0.67332742     0.06900
Br1344     Br  0.78212013  0.51807026  0.63200438    -0.03700
C1345       C  0.98020433  0.69056518  0.63854301    -0.10300
C1346       C  0.96310837  0.66269923  0.62405045     0.05900
C1347       C  0.98282449  0.63363670  0.61475300    -0.04100
C1348       C  0.01813077  0.63179191  0.62213105    -0.08500
C1349       C  0.03504061  0.65900365  0.63760697     0.05000
C1350       C  0.01595647  0.68914560  0.64503942    -0.03500
Br1351     Br  0.03658601  0.72852563  0.66522668    -0.03200
H1352       H  0.96547153  0.71290402  0.64609635     0.08900
H1353       H  0.03276353  0.60937165  0.61465074     0.06900
Br1354     Br  0.96368965  0.59578581  0.59117003    -0.03700
C1355       C  0.84491107  0.70353579  0.73601199    -0.10300
C1356       C  0.87332701  0.68875249  0.72098107     0.05900
C1357       C  0.90032447  0.67334408  0.73848793    -0.04100
C1358       C  0.89613544  0.66856655  0.76942815    -0.08500
C1359       C  0.86614402  0.67991689  0.78403833     0.05000
C1360       C  0.84133948  0.69965588  0.76747296    -0.03500
Br1361     Br  0.80050301  0.71886413  0.78557669    -0.03200
H1362       H  0.82409493  0.71575774  0.72307274     0.08900
H1363       H  0.91615320  0.65477832  0.78208423     0.06900
Br1364     Br  0.94310647  0.65609035  0.72175699    -0.03700
C1365       C  0.86557003  0.67922869  0.51774589    -0.10300
C1366       C  0.83496325  0.68662813  0.53354891     0.05900
C1367       C  0.80439312  0.69488550  0.51720509    -0.04100
C1368       C  0.80397730  0.69243859  0.98566968    -0.08500
C1369       C  0.83378535  0.68208823  0.96987589     0.05000
C1370       C  0.86524289  0.67667526  0.98615662    -0.03500
Br1371     Br  0.90746299  0.66125182  0.96745198    -0.03200
H1372       H  0.88916528  0.67269692  0.53011826     0.08900
H1373       H  0.77992991  0.69769547  0.97349533     0.06900
Br1374     Br  0.76256527  0.70971700  0.53682018    -0.03700
C1375       C  0.86710155  0.51441944  0.60114146    -0.10300
C1376       C  0.86398299  0.54494449  0.58369725     0.05900
C1377       C  0.86643468  0.54321374  0.55201466    -0.04100
C1378       C  0.86947899  0.51077000  0.53826251    -0.08500
C1379       C  0.86916419  0.48002515  0.55566680     0.05000
C1380       C  0.86896421  0.48198130  0.58744207    -0.03500
Br1381     Br  0.86998405  0.44165432  0.61344034    -0.03200
H1382       H  0.86594589  0.51551645  0.62561794     0.08900
H1383       H  0.86993667  0.50948711  0.51377340     0.06900
Br1384     Br  0.86570334  0.58386506  0.52647260    -0.03700
C1385       C  0.73746035  0.25455946  0.80340986    -0.10300
C1386       C  0.70196238  0.26283792  0.80053781     0.05900
C1387       C  0.69272109  0.29683522  0.79097624    -0.04100
C1388       C  0.71889631  0.32030187  0.78194215    -0.08500
C1389       C  0.75425398  0.31078257  0.78277343     0.05000
C1390       C  0.76342289  0.27792991  0.79498921    -0.03500
Br1391     Br  0.81050477  0.26252665  0.80206553    -0.03200
H1392       H  0.74544810  0.22932712  0.81206835     0.08900
H1393       H  0.71145740  0.34583007  0.77358637     0.06900
Br1394     Br  0.64547975  0.31323799  0.78939052    -0.03700
C1395       C  0.73013724  0.30910099  0.53041287    -0.10300
C1396       C  0.76385530  0.29762265  0.52238357     0.05900
C1397       C  0.77049840  0.26138851  0.52554385    -0.04100
C1398       C  0.74553372  0.23877300  0.53790646    -0.08500
C1399       C  0.71195899  0.24971335  0.54638040     0.05000
C1400       C  0.70425447  0.28564057  0.54179174    -0.03500
Br1401     Br  0.65911134  0.30435836  0.55015064    -0.03200
H1402       H  0.72403416  0.33659476  0.52849583     0.08900
H1403       H  0.75259891  0.21150828  0.53986153     0.06900
Br1404     Br  0.81279023  0.23927182  0.01260603    -0.03700
C1405       C  0.67263883  0.13548457  0.94823148    -0.10300
C1406       C  0.67428924  0.16601800  0.96553014     0.05900
C1407       C  0.67818244  0.19856712  0.95077982    -0.04100
C1408       C  0.67657015  0.20044408  0.91946382    -0.08500
C1409       C  0.67111365  0.17046775  0.90209858     0.05000
C1410       C  0.67090004  0.13738422  0.91658266    -0.03500
Br1411     Br  0.66414918  0.09423986  0.89526999    -0.03200
H1412       H  0.66977343  0.11033354  0.95933972     0.08900
H1413       H  0.67796128  0.22589281  0.90866220     0.06900
Br1414     Br  0.68398407  0.24202328  0.97176186    -0.03700
C1415       C  0.65340373  0.10960059  0.70282892    -0.10300
C1416       C  0.66171889  0.14181549  0.71610938     0.05900
C1417       C  0.67941014  0.16720695  0.69851995    -0.04100
C1418       C  0.68397766  0.16183153  0.66732320    -0.08500
C1419       C  0.67253729  0.13077494  0.65349752     0.05000
C1420       C  0.65959389  0.10357314  0.67214405    -0.03500
Br1421     Br  0.64994821  0.05749897  0.65696997    -0.03200
H1422       H  0.64169496  0.08904165  0.71635813     0.08900
H1423       H  0.69443270  0.18285852  0.65358959     0.06900
Br1424     Br  0.69542871  0.21072598  0.71516902    -0.03700
C1425       C  0.69473833  0.73934976  0.83575183    -0.10300
C1426       C  0.70752711  0.77324882  0.83008216     0.05900
C1427       C  0.74346558  0.77991873  0.83598014    -0.04100
C1428       C  0.76438264  0.75427956  0.84934479    -0.08500
C1429       C  0.75157390  0.72060767  0.85578773     0.05000
C1430       C  0.71632589  0.71307090  0.84797607    -0.03500
Br1431     Br  0.69521204  0.66804126  0.85397742    -0.03200
H1432       H  0.66747803  0.73343824  0.83156196     0.08900
H1433       H  0.79149674  0.76069363  0.85393970     0.06900
Br1434     Br  0.76707818  0.82290145  0.82569640    -0.03700
C1435       C  0.66450458  0.00094002  0.81063250    -0.10300
C1436       C  0.63975162  0.98347362  0.82828388     0.05900
C1437       C  0.61335414  0.00272839  0.84258232    -0.04100
C1438       C  0.61100335  0.03873178  0.83742226    -0.08500
C1439       C  0.63451513  0.05580407  0.81800640     0.05000
C1440       C  0.66184743  0.03651324  0.80490681    -0.03500
Br1441     Br  0.69405151  0.05539414  0.77579648    -0.03200
H1442       H  0.68446522  0.98632590  0.79901726     0.08900
H1443       H  0.59049934  0.05332536  0.84828106     0.06900
Br1444     Br  0.58007279  0.98123122  0.86923816    -0.03700
C1445       C  0.69206357  0.72571638  0.59757413    -0.10300
C1446       C  0.69846298  0.76181046  0.59914023     0.05900
C1447       C  0.72833790  0.77381216  0.61513426    -0.04100
C1448       C  0.75130700  0.74996617  0.62800699    -0.08500
C1449       C  0.74697031  0.71395711  0.62383554     0.05000
C1450       C  0.71631980  0.70172900  0.60911885    -0.03500
Br1451     Br  0.70791733  0.65339581  0.60014940    -0.03200
H1452       H  0.66933462  0.71605526  0.58544448     0.08900
H1453       H  0.77450671  0.75989278  0.63932691     0.06900
Br1454     Br  0.74150830  0.82205175  0.61951662    -0.03700
C1455       C  0.61279927  0.98167408  0.54220321    -0.05500
C1456       C  0.63456302  0.96393383  0.56275424     0.05900
C1457       C  0.66109119  0.98306285  0.57802594    -0.04100
C1458       C  0.66491445  0.01891902  0.57304159    -0.08500
C1459       C  0.64226865  0.03691866  0.55362420     0.05000
C1460       C  0.61646114  0.01782905  0.53753435    -0.03500
Br1461     Br  0.58589737  0.03975570  0.50865059    -0.03200
H1462       H  0.59282606  0.96742971  0.52982355     0.08900
H1463       H  0.68420695  0.03323856  0.58616407     0.06900
Br1464     Br  0.69071008  0.96312320  0.60873885    -0.03700
C1465       C  0.65722371  0.87637134  0.96661061    -0.10300
C1466       C  0.66466588  0.84339985  0.97922303     0.05900
C1467       C  0.67235546  0.81551074  0.95968115    -0.04100
C1468       C  0.67181789  0.82084398  0.92838397    -0.08500
C1469       C  0.66309660  0.85341474  0.91582498     0.05000
C1470       C  0.65581400  0.88139062  0.93520620    -0.03500
Br1471     Br  0.63913442  0.92527879  0.92008568    -0.03200
H1472       H  0.65019738  0.89783319  0.98121424     0.08900
H1473       H  0.67717470  0.79898964  0.91363696     0.06900
Br1474     Br  0.68335576  0.76944864  0.97404576    -0.03700
C1475       C  0.67059654  0.85354611  0.71600854    -0.10300
C1476       C  0.67082143  0.88740669  0.72816540     0.05900
C1477       C  0.66593239  0.91599299  0.70834719    -0.04100
C1478       C  0.65836109  0.91040437  0.67764796    -0.08500
C1479       C  0.65652140  0.87654836  0.66580299     0.05000
C1480       C  0.66364982  0.84798633  0.68509844    -0.03500
Br1481     Br  0.66012917  0.80078086  0.67098449    -0.03200
H1482       H  0.67314586  0.83118761  0.73096381     0.08900
H1483       H  0.65339879  0.93262729  0.66305388     0.06900
Br1484     Br  0.66888442  0.96326316  0.72242619    -0.03700
C1485       C  0.31039220  0.28838297  0.96053936    -0.10300
C1486       C  0.29479272  0.26159395  0.94331438     0.05900
C1487       C  0.25824039  0.26189004  0.93910956    -0.04100
C1488       C  0.23800153  0.28629538  0.95430760    -0.08500
C1489       C  0.25326715  0.31120702  0.97365797     0.05000
C1490       C  0.29000125  0.31310881  0.97564899    -0.03500
Br1491     Br  0.31358400  0.34602886  0.00131428    -0.03200
H1492       H  0.33835991  0.28835015  0.96444690     0.08900
H1493       H  0.20989781  0.28523884  0.95146190     0.06900
Br1494     Br  0.23419667  0.22865634  0.91384293    -0.03700
C1495       C  0.48264538  0.20236651  0.89910630    -0.10300
C1496       C  0.45243753  0.19233589  0.88306692     0.05900
C1497       C  0.45622003  0.17695552  0.85422734    -0.04100
C1498       C  0.48930669  0.17026136  0.84295938    -0.08500
C1499       C  0.51963446  0.17870448  0.85943857     0.05000
C1500       C  0.51601248  0.19575355  0.88769867    -0.03500
Br1501     Br  0.55477978  0.20970295  0.91292160    -0.03200
H1502       H  0.48042958  0.21324496  0.92147274     0.08900
H1503       H  0.49110940  0.15844849  0.82084411     0.06900
Br1504     Br  0.41750891  0.16262571  0.82907544    -0.03700
C1505       C  0.49255198  0.13680973  0.97163305    -0.10300
C1506       C  0.46192292  0.14405247  0.98770382     0.05900
C1507       C  0.46382820  0.14857606  0.51934874    -0.04100
C1508       C  0.49625614  0.14815761  0.53385446    -0.08500
C1509       C  0.52703583  0.14423948  0.51729612     0.05000
C1510       C  0.52503455  0.13709020  0.98614987    -0.03500
Br1511     Br  0.56570473  0.12715201  0.96265827    -0.03200
H1512       H  0.49150656  0.13270741  0.94738562     0.08900
H1513       H  0.49754261  0.15266845  0.55802571     0.06900
Br1514     Br  0.42350864  0.15586751  0.54407295    -0.03700
C1515       C  0.26828879  0.24283367  0.72791942    -0.10300
C1516       C  0.29607377  0.25568289  0.71050210     0.05900
C1517       C  0.29893260  0.29211892  0.70612343    -0.04100
C1518       C  0.27400948  0.31459337  0.71863716    -0.08500
C1519       C  0.24514527  0.30166268  0.73499116     0.05000
C1520       C  0.24323205  0.26506906  0.74021458    -0.03500
Br1521     Br  0.20814998  0.24279608  0.76465165    -0.03200
H1522       H  0.26611887  0.21503336  0.73225064     0.08900
H1523       H  0.27661805  0.34235262  0.71448231     0.06900
Br1524     Br  0.33431971  0.31253974  0.68099329    -0.03700
C1525       C  0.48328652  0.20028258  0.61765967    -0.10300
C1526       C  0.48129335  0.18031361  0.64450517     0.05900
C1527       C  0.51291657  0.16984357  0.65852730    -0.04100
C1528       C  0.54473241  0.17881867  0.64546826    -0.08500
C1529       C  0.54674764  0.19631284  0.61745909     0.05000
C1530       C  0.51540142  0.20820360  0.60405507    -0.03500
Br1531     Br  0.51397712  0.23384150  0.56663964    -0.03200
H1532       H  0.45963752  0.20962864  0.60685487     0.08900
H1533       H  0.56834770  0.16948956  0.65642445     0.06900
Br1534     Br  0.51610253  0.14189652  0.69479942    -0.03700
C1535       C  0.32616434  0.17168917  0.79944161    -0.10300
C1536       C  0.33526104  0.14149031  0.78366340     0.05900
C1537       C  0.33553585  0.10915094  0.79871751    -0.04100
C1538       C  0.32879401  0.10772286  0.82975136    -0.08500
C1539       C  0.32222664  0.13834414  0.84624921     0.05000
C1540       C  0.32025462  0.17050072  0.83063535    -0.03500
Br1541     Br  0.31577116  0.21427613  0.85115726    -0.03200
H1542       H  0.32630155  0.19672325  0.78788575     0.08900
H1543       H  0.33080995  0.08286863  0.84140470     0.06900
Br1544     Br  0.34601298  0.06664819  0.77783474    -0.03700
C1545       C  0.33107619  0.14390978  0.58240254    -0.10300
C1546       C  0.32886723  0.17603379  0.59745994     0.05900
C1547       C  0.32116752  0.20634814  0.58036296    -0.04100
C1548       C  0.31876212  0.20446913  0.54880989    -0.08500
C1549       C  0.32340585  0.17275082  0.53364065     0.05000
C1550       C  0.32868694  0.14208467  0.55079193    -0.03500
Br1551     Br  0.33823151  0.09802573  0.53228471    -0.03200
H1552       H  0.33715159  0.12036820  0.59509060     0.08900
H1553       H  0.31435766  0.22821690  0.53592604     0.06900
Br1554     Br  0.31355041  0.25112634  0.59856145    -0.03700
C1555       C  0.50384536  0.23681640  0.78198490    -0.10300
C1556       C  0.53347139  0.23186923  0.76384954     0.05900
C1557       C  0.52953313  0.23333874  0.73222241    -0.04100
C1558       C  0.49598884  0.23346242  0.71930964    -0.08500
C1559       C  0.46616919  0.23235130  0.73770470     0.05000
C1560       C  0.47030751  0.23737469  0.76896918    -0.03500
Br1561     Br  0.43059122  0.24488784  0.79409107    -0.03200
H1562       H  0.50641487  0.23715683  0.80640929     0.08900
H1563       H  0.49330758  0.23117782  0.69499763     0.06900
Br1564     Br  0.56942464  0.23327508  0.70623661    -0.03700
C1565       C  0.25579773  0.76148498  0.93674554    -0.10300
C1566       C  0.29155480  0.75637102  0.93166336     0.05900
C1567       C  0.30162104  0.72542035  0.91681705    -0.04100
C1568       C  0.27590338  0.70174959  0.90613427    -0.08500
C1569       C  0.23997430  0.70888179  0.90890770     0.05000
C1570       C  0.23030847  0.73922799  0.92486744    -0.03500
Br1571     Br  0.18293559  0.75358729  0.93121369    -0.03200
H1572       H  0.24720698  0.78471697  0.94836842     0.08900
H1573       H  0.28405850  0.67860255  0.89417451     0.06900
Br1574     Br  0.34945199  0.71553591  0.90796284    -0.03700
C1575       C  0.48393817  0.81539255  0.97559271    -0.10300
C1576       C  0.45350163  0.82342441  0.99168312     0.05900
C1577       C  0.45712616  0.83699957  0.52120365    -0.04100
C1578       C  0.48994490  0.84596637  0.53254638    -0.08500
C1579       C  0.52055564  0.83862569  0.51653480     0.05000
C1580       C  0.51729095  0.82228639  0.98786902    -0.03500
Br1581     Br  0.55676830  0.81068846  0.96335071    -0.03200
H1582       H  0.48187045  0.80566117  0.95266847     0.08900
H1583       H  0.49141625  0.85654638  0.55520824     0.06900
Br1584     Br  0.41833166  0.84271485  0.54805904    -0.03700
C1585       C  0.35640711  0.02863381  0.91849463    -0.10300
C1586       C  0.33538238  0.04473800  0.94009353     0.05900
C1587       C  0.31050287  0.02504939  0.95604943    -0.04100
C1588       C  0.30941368  0.98885173  0.95223415    -0.08500
C1589       C  0.33272167  0.97254634  0.93247002     0.05000
C1590       C  0.35490365  0.99284661  0.91427441    -0.03500
Br1591     Br  0.38372524  0.97289628  0.88347170    -0.03200
H1592       H  0.37430387  0.04400326  0.90489958     0.08900
H1593       H  0.29189465  0.97331344  0.96600736     0.06900
Br1594     Br  0.27972939  0.04592192  0.98465560    -0.03700
C1595       C  0.46000751  0.88098447  0.85947877    -0.10300
C1596       C  0.46102060  0.88133514  0.89115800     0.05900
C1597       C  0.49359690  0.88593025  0.90590396    -0.04100
C1598       C  0.52432119  0.88216635  0.88944989    -0.08500
C1599       C  0.52323743  0.87821488  0.85795845     0.05000
C1600       C  0.49082170  0.88166950  0.84282209    -0.03500
Br1601     Br  0.48633474  0.88894629  0.80014292    -0.03200
H1602       H  0.43514294  0.88026741  0.84766105     0.08900
H1603       H  0.54921932  0.88283282  0.90124676     0.06900
Br1604     Br  0.49842140  0.89819219  0.94777805    -0.03700
C1605       C  0.30170177  0.73677803  0.66605725    -0.10300
C1606       C  0.29461139  0.77273120  0.66501037     0.05900
C1607       C  0.26452726  0.78392698  0.64900210    -0.04100
C1608       C  0.24159469  0.75941245  0.63636353    -0.08500
C1609       C  0.24728483  0.72340329  0.63928829     0.05000
C1610       C  0.27841859  0.71216425  0.65362712    -0.03500
Br1611     Br  0.28958696  0.66387171  0.65971797    -0.03200
H1612       H  0.32491747  0.72756939  0.67767966     0.08900
H1613       H  0.21805929  0.76865712  0.62524676     0.06900
Br1614     Br  0.25250844  0.83199996  0.64274010    -0.03700
C1615       C  0.48379838  0.82142045  0.75629162    -0.10300
C1616       C  0.48150861  0.84438844  0.73134400     0.05900
C1617       C  0.51288738  0.85524222  0.71721278    -0.04100
C1618       C  0.54488988  0.84447914  0.72899163    -0.08500
C1619       C  0.54714531  0.82503179  0.75600614     0.05000
C1620       C  0.51604758  0.81164884  0.76860922    -0.03500
Br1621     Br  0.51506404  0.78164963  0.80351920    -0.03200
H1622       H  0.46033249  0.81108985  0.76658826     0.08900
H1623       H  0.56843970  0.85445557  0.71847623     0.06900
Br1624     Br  0.51547099  0.88620331  0.68281954    -0.03700
C1625       C  0.40150607  0.03156724  0.70109237    -0.10300
C1626       C  0.37315751  0.05037963  0.68883749     0.05900
C1627       C  0.34496885  0.03099160  0.67633066    -0.04100
C1628       C  0.34586159  0.99428849  0.67599011    -0.08500
C1629       C  0.37438068  0.97555168  0.68785571     0.05000
C1630       C  0.40229100  0.99479196  0.70084024    -0.03500
Br1631     Br  0.44122974  0.97246439  0.72029597    -0.03200
H1632       H  0.42306980  0.04556078  0.71160705     0.08900
H1633       H  0.32419686  0.98026670  0.66569269     0.06900
Br1634     Br  0.30497990  0.05260978  0.65791944    -0.03700
C1635       C  0.31756216  0.82213842  0.79464197    -0.10300
C1636       C  0.32733366  0.85333597  0.78000300     0.05900
C1637       C  0.32867444  0.88450740  0.79711506    -0.04100
C1638       C  0.32434094  0.88306313  0.82861555    -0.08500
C1639       C  0.31822907  0.85112407  0.84335630     0.05000
C1640       C  0.31254916  0.82095622  0.82590647    -0.03500
Br1641     Br  0.29809989  0.77749016  0.84386403    -0.03200
H1642       H  0.31474031  0.79823829  0.78181089     0.08900
H1643       H  0.32842030  0.90651977  0.84182319     0.06900
Br1644     Br  0.33982333  0.92921218  0.77976286    -0.03700
C1645       C  0.32050534  0.84666267  0.54714821    -0.10300
C1646       C  0.31899915  0.87848151  0.53141760     0.05900
C1647       C  0.32228691  0.91007214  0.54763805    -0.04100
C1648       C  0.32965806  0.90940663  0.57854785    -0.08500
C1649       C  0.33408663  0.87765519  0.59357300     0.05000
C1650       C  0.32856294  0.84605430  0.57805726    -0.03500
Br1651     Br  0.33732343  0.80172179  0.59693826    -0.03200
H1652       H  0.31930830  0.82225732  0.53483480     0.08900
H1653       H  0.33355709  0.93372635  0.59059956     0.06900
Br1654     Br  0.32010725  0.95493577  0.52830565    -0.03700
C1655       C  0.46556169  0.78650237  0.60927888    -0.10300
C1656       C  0.46182398  0.78919575  0.64070786     0.05900
C1657       C  0.49148155  0.78226765  0.65898250    -0.04100
C1658       C  0.52486992  0.78455483  0.64640629    -0.08500
C1659       C  0.52878715  0.78666643  0.61502843     0.05000
C1660       C  0.49876202  0.78186216  0.59671622    -0.03500
Br1661     Br  0.50170902  0.76633708  0.55571881    -0.03200
H1662       H  0.44283657  0.78790525  0.59467432     0.08900
H1663       H  0.54768135  0.78475412  0.66105412     0.06900
Br1664     Br  0.48808447  0.76664246  0.69995596    -0.03700
loop_ 
_geom_bond_atom_site_label_1 
_geom_bond_atom_site_label_2 
_geom_bond_distance 
_geom_bond_site_symmetry_2 
_ccdc_geom_bond_type 
O1           C16   1.268       .  A
O1           Al9   1.934       .  S
C2           O12   1.264       .  A
C2            O3   1.253       .  A
C2          C817   1.457       .  S
O3           Al5   1.869       .  S
O4            C6   1.267       .  A
O4           Al5   1.932       .  S
Al5          O13   1.928       .  S
Al5          O15   1.904       .  S
Al5          O14   1.782       .  S
C6           O19   1.264       .  A
C6          C774   1.489       .  S
O7           C17   1.259       .  A
O7           Al9   1.923       .  S
O8           C21   1.265       .  A
O8          Al18   1.912       .  S
Al9          O22   1.896       .  S
Al9          O19   1.903       .  S
Al9          O14   1.781       .  S
O10          C17   1.263       .  A
O10         Al18   1.922       .  S
O11          C20   1.263       .  A
O11         Al18   1.920       .  S
O12         Al18   1.919       .  S
O13          C20   1.264       .  A
O14         Al18   1.777       .  S
O15          C16   1.261       .  A
C16         C804   1.487       .  S
C17         C824   1.489       .  S
C20         C797   1.501       .  S
C21          O22   1.268       .  A
C21         C784   1.484       .  S
O23          C38   1.260       .  A
O23         Al31   1.901       .  S
C24          O34   1.268       .  A
C24          O25   1.260       .  A
C24        C1646   1.467       .  S
O25         Al27   1.898       .  S
O26          C28   1.254       .  A
O26         Al27   1.855       .  S
Al27         O35   1.862       .  S
Al27         O37   1.906       .  S
Al27         O36   1.765       .  S
C28          O41   1.274       .  A
C28         C744   1.484       .  S
O29          C39   1.270       .  A
O29         Al31   1.938       .  S
O30          C43   1.268       .  A
O30         Al40   1.911       .  S
Al31         O44   1.920       .  S
Al31         O41   1.970       .  S
Al31         O36   1.781       .  S
O32          C39   1.260       .  A
O32         Al40   1.883       .  S
O33          C42   1.262       .  A
O33         Al40   1.924       .  S
O34         Al40   1.925       .  S
O35          C42   1.257       .  A
O36         Al40   1.773       .  S
O37          C38   1.256       .  A
C38         C764   1.476       .  S
C39         C734   1.496       .  S
C42         C757   1.456       .  S
C43          O44   1.268       .  A
C43         C807   1.474       .  S
O45          C60   1.264       .  A
O45         Al53   1.922       .  S
C46          O56   1.266       .  A
C46          O47   1.257       .  A
C46         C704   1.465       .  S
O47         Al49   1.883       .  S
O48          C50   1.270       .  A
O48         Al49   1.936       .  S
Al49         O57   1.939       .  S
Al49         O59   1.907       .  S
Al49         O58   1.781       .  S
C50          O63   1.265       .  A
C50         C684   1.493       .  S
O51          C61   1.259       .  A
O51         Al53   1.925       .  S
O52          C65   1.268       .  A
O52         Al62   1.926       .  S
Al53         O66   1.898       .  S
Al53         O63   1.911       .  S
Al53         O58   1.789       .  S
O54          C61   1.261       .  A
O54         Al62   1.910       .  S
O55          C64   1.263       .  A
O55         Al62   1.913       .  S
O56         Al62   1.923       .  S
O57          C64   1.265       .  A
O58         Al62   1.777       .  S
O59          C60   1.263       .  A
C60         C714   1.484       .  S
C61         C727   1.482       .  S
C64         C794   1.505       .  S
C65          O66   1.266       .  A
C65         C694   1.491       .  S
O67          C82   1.256       .  A
O67         Al75   1.883       .  S
C68          O78   1.270       .  A
C68          O69   1.263       .  A
C68         C707   1.476       .  S
O69         Al71   1.912       .  S
O70          C72   1.250       .  A
O70         Al71   1.849       .  S
Al71         O79   1.869       .  S
Al71         O81   1.909       .  S
Al71         O80   1.763       .  S
C72          O85   1.272       .  A
C72         C664   1.479       .  S
O73          C83   1.266       .  A
O73         Al75   1.918       .  S
O74         C919   1.271       .  A
O74         Al84   1.911       .  S
Al75         O85   1.963       .  S
Al75        O920   1.927       .  S
Al75         O80   1.775       .  S
O76          C83   1.261       .  A
O76         Al84   1.900       .  S
O77          C86   1.263       .  A
O77         Al84   1.930       .  S
O78         Al84   1.925       .  S
O79          C86   1.256       .  A
O80         Al84   1.773       .  S
O81          C82   1.260       .  A
C82         C674   1.471       .  S
C83         C654   1.483       .  S
C86         C754   1.455       .  S
C87          O88   1.271   1_554  A
C87         O906   1.271   1_554  A
C87         C717   1.478       .  S
O88        Al907   1.927       .  S
O89         C104   1.268       .  A
O89         Al97   1.933       .  S
C90         O100   1.272       .  A
C90          O91   1.263       .  A
C90         C647   1.483       .  S
O91         Al93   1.902       .  S
O92          C94   1.260       .  A
O92         Al93   1.908       .  S
Al93        O101   1.893       .  S
Al93        O103   1.897       .  S
Al93        O102   1.776       .  S
C94         O107   1.264       .  A
C94         C614   1.480       .  S
O95         C105   1.260       .  A
O95         Al97   1.920       .  S
O96         C109   1.271       .  A
O96        Al106   1.924       .  S
Al97        O110   1.893       .  S
Al97        O107   1.913       .  S
Al97        O102   1.786       .  S
O98         C105   1.262       .  A
O98        Al106   1.910       .  S
O99         C108   1.263       .  A
O99        Al106   1.928       .  S
O100       Al106   1.949       .  S
O101        C108   1.255       .  A
O102       Al106   1.769       .  S
O103        C104   1.263       .  A
C104       C1466   1.481   1_554  S
C105        C827   1.482       .  S
C108        C624   1.486       .  S
C109        O110   1.262       .  A
C109        C747   1.489       .  S
O111        C126   1.262       .  A
O111       Al119   1.907       .  S
C112        O122   1.269       .  A
C112        O113   1.260       .  A
C112        C644   1.484       .  S
O113       Al115   1.912       .  S
O114        C116   1.255       .  A
O114       Al115   1.863       .  S
Al115       O123   1.880       .  S
Al115       O125   1.908       .  S
Al115       O124   1.770       .  S
C116        O129   1.270       .  A
C116        C787   1.481       .  S
O117        C127   1.272       .  A
O117       Al119   1.941       .  S
O118        C131   1.272       .  A
O118       Al128   1.920       .  S
Al119       O132   1.905       .  S
Al119       O129   1.952       .  S
Al119       O124   1.774       .  S
O120        C127   1.257       .  A
O120       Al128   1.890       .  S
O121        C130   1.269       .  A
O121       Al128   1.935       .  S
O122       Al128   1.947       .  S
O123        C130   1.257       .  A
O124       Al128   1.764       .  S
O125        C126   1.257       .  A
C126        C767   1.476       .  S
C127        C594   1.499       .  S
C130        C604   1.467       .  S
C131        O132   1.266       .  A
C131        C637   1.473       .  S
O133        C148   1.258       .  A
O133       Al141   1.900       .  S
C134        O144   1.269       .  A
C134        O135   1.259       .  A
C134        C587   1.488       .  S
O135       Al137   1.908       .  S
O136        C138   1.255       .  A
O136       Al137   1.858       .  S
Al137       O145   1.881       .  S
Al137       O147   1.904       .  S
Al137       O146   1.769       .  S
C138        O151   1.274       .  A
C138        C697   1.488       .  S
O139        C149   1.273       .  A
O139       Al141   1.952       .  S
O140        C985   1.270   1_554  A
O140       Al150   1.914       .  S
Al141       O154   1.890       .  S
Al141       O151   1.972       .  S
Al141       O146   1.783       .  S
O142        C149   1.266       .  A
O142       Al150   1.913       .  S
O143        C152   1.275       .  A
O143       Al150   1.966       .  S
O144       Al150   1.944       .  S
O145        C152   1.257       .  A
O146       Al150   1.767       .  S
O147        C148   1.256       .  A
C148        C677   1.466       .  S
C149        C567   1.524       .  S
C152        C627   1.481       .  S
C153        O972   1.270       .  A
C153        O986   1.264       .  A
C153        C574   1.468       .  S
O154        C985   1.264   1_554  A
O155        C170   1.269       .  A
O155       Al163   1.925       .  S
C156        O166   1.272       .  A
C156        O157   1.262       .  A
C156        C584   1.486       .  S
O157       Al159   1.898       .  S
O158        C160   1.262       .  A
O158       Al159   1.895       .  S
Al159       O167   1.890       .  S
Al159       O169   1.882       .  S
Al159       O168   1.775       .  S
C160        O173   1.259       .  A
C160        C554   1.478       .  S
O161        C171   1.266       .  A
O161       Al163   1.937       .  S
O162        C175   1.269       .  A
O162       Al172   1.931       .  S
Al163       O176   1.878       .  S
Al163       O173   1.893       .  S
Al163       O168   1.778       .  S
O164        C171   1.264       .  A
O164       Al172   1.900       .  S
O165        C174   1.263       .  A
O165       Al172   1.912       .  S
O166       Al172   1.947       .  S
O167        C174   1.257       .  A
O168       Al172   1.767       .  S
O169        C170   1.257       .  A
C170        C577   1.473       .  S
C171        C724   1.481       .  S
C174        C607   1.474       .  S
C175        O176   1.255       .  A
C175        C667   1.486       .  S
O177        C192   1.259       .  A
O177       Al185   1.890       .  S
C178        O188   1.267       .  A
C178        O179   1.254       .  A
C178        C524   1.479       .  S
O179       Al181   1.878       .  S
O180        C182   1.252       .  A
O180       Al181   1.861       .  S
Al181       O189   1.849       .  S
Al181       O191   1.895       .  S
Al181       O190   1.749       .  S
C182        O195   1.273       .  A
C182        C504   1.491       .  S
O183        C193   1.266       .  A
O183       Al185   1.906       .  S
O184        C197   1.267       .  A
O184       Al194   1.907       .  S
Al185       O198   1.927       .  S
Al185       O195   1.984       .  S
Al185       O190   1.779       .  S
O186        C193   1.268       .  A
O186       Al194   1.906       .  S
O187        C196   1.272       .  A
O187       Al194   1.957       .  S
O188       Al194   1.938       .  S
O189        C196   1.253       .  A
O190       Al194   1.766       .  S
O191        C192   1.259       .  A
C192        C544   1.459       .  S
C193        C617   1.480       .  S
C196        C514   1.472       .  S
C197        O198   1.268       .  A
C197        C534   1.472       .  S
O199        C214   1.271       .  A
O199       Al207   1.939       .  S
C200        O210   1.272       .  A
C200        O201   1.258       .  A
C200        C527   1.477       .  S
O201       Al203   1.889       .  S
O202        C204   1.269       .  A
O202       Al203   1.936       .  S
Al203       O211   1.947       .  S
Al203       O213   1.889       .  S
Al203       O212   1.782       .  S
C204        O217   1.264       .  A
C204        C597   1.503       .  S
O205        C215   1.263       .  A
O205       Al207   1.939       .  S
O206        C219   1.276       .  A
O206       Al216   1.959       .  S
Al207       O220   1.902       .  S
Al207       O217   1.918       .  S
Al207       O212   1.783       .  S
O208        C215   1.257       .  A
O208       Al216   1.893       .  S
O209        C218   1.264       .  A
O209       Al216   1.916       .  S
O210       Al216   1.934       .  S
O211        C218   1.266       .  A
O212       Al216   1.766       .  S
O213        C214   1.261       .  A
C214        C537   1.479       .  S
C215        C494   1.482       .  S
C218        C484   1.508       .  S
C219        O220   1.264       .  A
C219        C474   1.508       .  S
O221        C236   1.248       .  A
O221       Al229   1.865       .  S
C222        O232   1.270       .  A
C222        O223   1.268       .  A
C222        C437   1.470       .  S
O223       Al225   1.927       .  S
O224        C226   1.250       .  A
O224       Al225   1.853       .  S
Al225       O233   1.898       .  S
Al225       O235   1.957       .  S
Al225       O234   1.762       .  S
C226        O239   1.278       .  A
C226        C467   1.490       .  S
O227        C237   1.262       .  A
O227       Al229   1.911       .  S
O228        C241   1.266       .  A
O228       Al238   1.888       .  S
Al229       O242   1.946       .  S
Al229       O239   1.991       .  S
Al229       O234   1.770       .  S
O230        C237   1.262       .  A
O230       Al238   1.908       .  S
O231        C240   1.264       .  A
O231       Al238   1.923       .  S
O232       Al238   1.912       .  S
O233        C240   1.266       .  A
O234       Al238   1.773       .  S
O235        C236   1.270       .  A
C236        C457   1.493       .  S
C237        C777   1.487       .  S
C240        C517   1.473       .  S
C241        O242   1.277       .  A
C241        C444   1.482       .  S
O243        C258   1.254       .  A
O243       Al251   1.887       .  S
C244        O254   1.263       .  A
C244        O245   1.259       .  A
C244        C434   1.466       .  S
O245       Al247   1.893       .  S
O246        C248   1.271       .  A
O246       Al247   1.941       .  S
Al247       O255   1.940       .  S
Al247       O257   1.930       .  S
Al247       O256   1.781       .  S
C248        O261   1.270       .  A
C248        C737   1.497       .  S
O249        C259   1.251       .  A
O249       Al251   1.894       .  S
O250        C263   1.271       .  A
O250       Al260   1.922       .  S
Al251       O264   1.905       .  S
Al251       O261   1.922       .  S
Al251       O256   1.787       .  S
O252        C259   1.257       .  A
O252       Al260   1.916       .  S
O253        C262   1.257       .  A
O253       Al260   1.902       .  S
O254       Al260   1.907       .  S
O255        C262   1.265       .  A
O256       Al260   1.779       .  S
O257        C258   1.265       .  A
C258        C447   1.483       .  S
C259        C414   1.477       .  S
C262        C487   1.505       .  S
C263        O264   1.269       .  A
C263        C424   1.482       .  S
O265        C280   1.270       .  A
O265       Al273   1.936       .  S
C266        O276   1.272       .  A
C266        O267   1.263       .  A
C266        C394   1.483       .  S
O267       Al269   1.900       .  S
O268        C270   1.261       .  A
O268       Al269   1.906       .  S
Al269       O277   1.903       .  S
Al269       O279   1.891       .  S
Al269       O278   1.780       .  S
C270        O283   1.262       .  A
C270        C557   1.475       .  S
O271        C281   1.262       .  A
O271       Al273   1.928       .  S
O272        C285   1.270       .  A
O272       Al282   1.939       .  S
Al273       O286   1.886       .  S
Al273       O283   1.902       .  S
Al273       O278   1.782       .  S
O274        C281   1.264       .  A
O274       Al282   1.915       .  S
O275        C284   1.267       .  A
O275       Al282   1.927       .  S
O276       Al282   1.940       .  S
O277        C284   1.255       .  A
O278       Al282   1.763       .  S
O279        C280   1.260       .  A
C280        C404   1.476       .  S
C281        C497   1.485       .  S
C284        C384   1.494       .  S
C285        O286   1.262       .  A
C285        C507   1.492       .  S
O287        C302   1.255       .  A
O287       Al295   1.877       .  S
C288        O298   1.269       .  A
C288        O289   1.265       .  A
C288        C397   1.489       .  S
O289       Al291   1.910       .  S
O290        C292   1.252       .  A
O290       Al291   1.860       .  S
Al291       O299   1.880       .  S
Al291      O1133   1.898       .  S
Al291      O1132   1.767       .  S
C292       O1137   1.279       .  A
C292        C477   1.505       .  S
O293        C303   1.275       .  A
O293       Al295   1.954       .  S
O294        C307   1.270       .  A
O294       Al304   1.915       .  S
Al295       O308   1.922       .  S
Al295       O305   1.998   1_554  S
Al295       O300   1.782       .  S
O296        C303   1.264       .  A
O296       Al304   1.916       .  S
O297        C306   1.271       .  A
O297       Al304   1.966       .  S
O298      Al1136   1.934       .  S
O299       C1138   1.255       .  A
O300       Al304   1.769       .  S
O300      Al1123   1.767   1_554  S
O301        C302   1.258       .  A
O301      Al1123   1.898   1_554  S
C302        C547   1.457       .  S
C303        C564   1.518       .  S
Al304      O1130   1.934   1_554  S
O305       C1124   1.279       .  A
C306       O1131   1.255       .  A
C306        C377   1.486       .  S
C307        O308   1.270       .  A
C307        C407   1.473       .  S
O309        C324   1.277       .  A
O309       Al317   1.960       .  S
C310        O320   1.271       .  A
C310        O311   1.258       .  A
C310        C357   1.467       .  S
O311       Al313   1.874       .  S
O312        C314   1.260       .  A
O312       Al313   1.908       .  S
Al313      O1153   1.905       .  S
Al313      O1155   1.865       .  S
Al313       O322   1.782       .  S
C314       O1159   1.260       .  A
C314        C657   1.486       .  S
O315        C325   1.265       .  A
O315      Al1149   1.940       .  S
O316        C329   1.270       .  A
O316      Al1158   1.936   1_554  S
Al317       O330   1.902       .  S
Al317       O327   1.919   1_554  S
Al317      O1147   1.940   1_554  S
Al317      O1154   1.782       .  S
O318        C325   1.261       .  A
O318       Al326   1.888       .  S
O319       C1160   1.267       .  A
O319       Al326   1.931       .  S
O320       Al326   1.951       .  S
O321        C328   1.258   1_556  A
O321      Al1145   1.905       .  S
O322       Al326   1.767       .  S
O322      Al1149   1.782       .  S
O323        C324   1.256       .  A
O323      Al1145   1.865   1_554  S
C324        C364   1.491       .  S
C325        C417   1.479       .  S
Al326      O1148   1.936       .  S
O327       C1146   1.260       .  A
C328       O1151   1.267       .  A
C328        C374   1.494       .  S
C329        O330   1.262       .  A
C329        C464   1.503       .  S
O331        C346   1.271       .  A
O331       Al339   1.933       .  S
C332        O342   1.265       .  A
C332        O333   1.259       .  A
C332        C367   1.479       .  S
O333       Al335   1.907       .  S
O334        C336   1.271       .  A
O334       Al335   1.943       .  S
Al335       O343   1.982       .  S
Al335       O345   1.902       .  S
Al335       O344   1.765       .  S
C336        O349   1.274       .  A
C336        C687   1.506       .  S
O337        C347   1.272       .  A
O337       Al339   1.993       .  S
O338        C351   1.272       .  A
O338       Al348   1.957       .  S
Al339       O352   1.883       .  S
Al339       O349   1.925       .  S
Al339       O344   1.780       .  S
O340        C347   1.238       .  A
O340       Al348   1.847       .  S
O341        C350   1.248       .  A
O341       Al348   1.845       .  S
O342       Al348   1.926       .  S
O343        C350   1.275       .  A
O344       Al348   1.759       .  S
O345        C346   1.265       .  A
C346        C354   1.491       .  S
C347        C454   1.492       .  S
C350        C387   1.495       .  S
C351        O352   1.262       .  A
C351        C427   1.477       .  S
C353        C354   1.408       .  A
C353        C358   1.393       .  A
C353        H360   1.083       .  S
C354        C355   1.421       .  A
C355        C356   1.405       .  A
C355       Br362   1.921       .  S
C356        C357   1.400       .  A
C356        H361   1.084       .  S
C357        C358   1.403       .  A
C358       Br359   1.919       .  S
C363        C364   1.398       .  A
C363        C368   1.394       .  A
C363        H370   1.084       .  S
C364        C365   1.425       .  A
C365        C366   1.405       .  A
C365       Br372   1.922       .  S
C366        C367   1.397       .  A
C366        H371   1.084       .  S
C367        C368   1.413       .  A
C368       Br369   1.903       .  S
C373        C374   1.406       .  A
C373        C378   1.405   1_455  A
C373        H380   1.083       .  S
C374       C1207   1.422   1_554  A
C375        C376   1.401   1_455  A
C375       C1206   1.422       .  A
C375       Br382   1.924       .  S
C376       C1209   1.400       .  A
C376        H381   1.083       .  S
C377        C378   1.413       .  A
C377       C1208   1.400       .  A
C378       Br379   1.921       .  S
C383        C384   1.399       .  A
C383        C388   1.399   1_655  A
C383        H390   1.084       .  S
C384        C385   1.423       .  A
C385        C386   1.406   1_655  A
C385       Br392   1.922       .  S
C386        C387   1.402       .  A
C386        H391   1.084       .  S
C387        C388   1.424       .  A
C388       Br389   1.926       .  S
C393        C394   1.409       .  A
C393        C398   1.409       .  A
C393        H400   1.084       .  S
C394        C395   1.408       .  A
C395        C396   1.394       .  A
C395       Br402   1.922       .  S
C396        C397   1.407       .  A
C396        H401   1.084       .  S
C397        C398   1.414       .  A
C398       Br399   1.920       .  S
C403        C404   1.400       .  A
C403        C408   1.394       .  A
C403        H410   1.084       .  S
C404        C405   1.415       .  A
C405        C406   1.402       .  A
C405       Br412   1.921       .  S
C406        C407   1.402       .  A
C406        H411   1.084       .  S
C407        C408   1.409       .  A
C408       Br409   1.917       .  S
C413        C414   1.402       .  A
C413        C418   1.403       .  A
C413        H420   1.082       .  S
C414        C415   1.414       .  A
C415        C416   1.395       .  A
C415       Br422   1.917       .  S
C416        C417   1.400       .  A
C416        H421   1.080       .  S
C417        C418   1.411       .  A
C418       Br419   1.913       .  S
C423        C424   1.403       .  A
C423        C428   1.394       .  A
C423        H430   1.084       .  S
C424        C425   1.412       .  A
C425        C426   1.403       .  A
C425       Br432   1.918       .  S
C426        C427   1.404       .  A
C426        H431   1.084       .  S
C427        C428   1.410       .  A
C428       Br429   1.917       .  S
C433        C434   1.399       .  A
C433       C1270   1.396       .  A
C433        H440   1.084       .  S
C434        C435   1.409       .  A
C435       C1268   1.399       .  A
C435       Br442   1.917       .  S
C436        C437   1.403       .  A
C436       C1267   1.399   1_554  A
C436        H441   1.084       .  S
C437        C438   1.411       .  A
C438       C1265   1.396   1_554  A
C438       Br439   1.920       .  S
C443        C444   1.399       .  A
C443        C448   1.394       .  A
C443        H450   1.085       .  S
C444        C445   1.417       .  A
C445        C446   1.403       .  A
C445       Br452   1.919       .  S
C446        C447   1.403       .  A
C446        H451   1.084       .  S
C447        C448   1.418       .  A
C448       Br449   1.925       .  S
C453        C454   1.401       .  A
C453        C458   1.403       .  A
C453        H460   1.091       .  S
C454        C455   1.425       .  A
C455        C456   1.395       .  A
C455       Br462   1.931       .  S
C456        C457   1.400       .  A
C456        H461   1.085       .  S
C457        C458   1.424       .  A
C458       Br459   1.923       .  S
C463        C464   1.408       .  A
C463        C468   1.398       .  A
C463        H470   1.083       .  S
C464        C465   1.424       .  A
C465        C466   1.409       .  A
C465       Br472   1.919       .  S
C466        C467   1.403       .  A
C466        H471   1.083       .  S
C467        C468   1.416       .  A
C468       Br469   1.922       .  S
C473        C474   1.404       .  A
C473        C478   1.401       .  A
C473        H480   1.101       .  S
C474        C475   1.424       .  A
C475        C476   1.414       .  A
C475       Br482   1.922       .  S
C476        C477   1.409       .  A
C476        H481   1.070       .  S
C477        C478   1.421       .  A
C478       Br479   1.926       .  S
C483        C484   1.409       .  A
C483        C488   1.408   1_655  A
C483        H490   1.084       .  S
C484        C485   1.419       .  A
C485        C486   1.410   1_655  A
C485       Br492   1.920       .  S
C486        C487   1.408       .  A
C486        H491   1.084       .  S
C487        C488   1.417       .  A
C488       Br489   1.922       .  S
C493        C494   1.408       .  A
C493        C498   1.403       .  A
C493        H500   1.082       .  S
C494        C495   1.407       .  A
C495        C496   1.404       .  A
C495       Br502   1.919       .  S
C496        C497   1.408       .  A
C496        H501   1.082       .  S
C497        C498   1.404       .  A
C498       Br499   1.912       .  S
C503        C504   1.408       .  A
C503        C508   1.393       .  A
C503        H510   1.084       .  S
C504        C505   1.413       .  A
C505        C506   1.406       .  A
C505       Br512   1.921       .  S
C506        C507   1.413       .  A
C506        H511   1.083       .  S
C507        C508   1.414       .  A
C508       Br509   1.926       .  S
C513        C514   1.403       .  A
C513        C518   1.399   1_655  A
C513        H520   1.084       .  S
C514        C515   1.414       .  A
C515        C516   1.391   1_655  A
C515       Br522   1.927       .  S
C516        C517   1.401       .  A
C516        H521   1.083       .  S
C517        C518   1.412       .  A
C518       Br519   1.918       .  S
C523        C524   1.404       .  A
C523        C528   1.405       .  A
C523        H530   1.086       .  S
C524        C525   1.418       .  A
C525        C526   1.389       .  A
C525       Br532   1.926       .  S
C526        C527   1.395       .  A
C526        H531   1.085       .  S
C527        C528   1.416       .  A
C528       Br529   1.916       .  S
C533        C534   1.401       .  A
C533       C1370   1.400   1_554  A
C533        H540   1.083       .  S
C534        C535   1.409       .  A
C535       C1368   1.397   1_554  A
C535       Br542   1.919       .  S
C536        C537   1.403       .  A
C536       C1367   1.397       .  A
C536        H541   1.083       .  S
C537        C538   1.415       .  A
C538       C1365   1.400       .  A
C538       Br539   1.920       .  S
C543        C544   1.403       .  A
C543        C548   1.387       .  A
C543        H550   1.084       .  S
C544        C545   1.406       .  A
C545        C546   1.392       .  A
C545       Br552   1.919       .  S
C546        C547   1.404       .  A
C546        H551   1.084       .  S
C547        C548   1.407       .  A
C548       Br549   1.921       .  S
C553        C554   1.403       .  A
C553        C558   1.385       .  A
C553        H560   1.083       .  S
C554        C555   1.414       .  A
C555        C556   1.401       .  A
C555       Br562   1.921       .  S
C556        C557   1.406       .  A
C556        H561   1.083       .  S
C557        C558   1.413       .  A
C558       Br559   1.925       .  S
C563        C564   1.416       .  A
C563        C568   1.426       .  A
C563        H570   1.083       .  S
C564        C565   1.419       .  A
C565        C566   1.398       .  A
C565      Br1404   1.926       .  S
C566        C567   1.410       .  A
C566        H571   1.084       .  S
C567        C568   1.423       .  A
C568       Br569   1.916       .  S
Br572      C1397   1.926       .  S
C573        C574   1.401       .  A
C573        C578   1.401       .  A
C573        H580   1.084       .  S
C574        C575   1.412       .  A
C575        C576   1.386       .  A
C575       Br582   1.920       .  S
C576        C577   1.397       .  A
C576        H581   1.085       .  S
C577        C578   1.417       .  A
C578       Br579   1.921       .  S
C583        C584   1.402       .  A
C583        C588   1.399       .  A
C583        H590   1.083       .  S
C584        C585   1.415       .  A
C585        C586   1.407       .  A
C585       Br592   1.920       .  S
C586        C587   1.406       .  A
C586        H591   1.083       .  S
C587        C588   1.415       .  A
C588       Br589   1.923       .  S
C593        C594   1.407       .  A
C593        C598   1.411       .  A
C593        H600   1.082       .  S
C594        C595   1.421       .  A
C595        C596   1.398       .  A
C595       Br602   1.927       .  S
C596        C597   1.405       .  A
C596        H601   1.084       .  S
C597        C598   1.419       .  A
C598       Br599   1.918       .  S
C603        C604   1.397   1_545  A
C603        C608   1.389       .  A
C603        H610   1.085   1_545  S
C604        C605   1.411   1_565  A
C605        C606   1.400       .  A
C605       Br612   1.921   1_545  S
C606        C607   1.405       .  A
C606        H611   1.084       .  S
C607        C608   1.415       .  A
C608       Br609   1.924       .  S
C613        C614   1.404       .  A
C613        C618   1.403       .  A
C613        H620   1.083       .  S
C614        C615   1.416       .  A
C615        C616   1.390       .  A
C615       Br622   1.922       .  S
C616        C617   1.401       .  A
C616        H621   1.084       .  S
C617        C618   1.416       .  A
C618       Br619   1.919       .  S
C623        C624   1.405       .  A
C623        C628   1.405   1_565  A
C623        H630   1.083       .  S
C624        C625   1.417       .  A
C625        C626   1.397   1_565  A
C625       Br632   1.922       .  S
C626        C627   1.399       .  A
C626        H631   1.083       .  S
C627        C628   1.415       .  A
C628       Br629   1.920       .  S
C633        C634   1.408       .  A
C633        C638   1.401       .  A
C633        H640   1.084       .  S
C634        C936   1.481       .  S
C634        C635   1.411       .  A
C635        C636   1.397       .  A
C635       Br642   1.921       .  S
C636        C637   1.405       .  A
C636        H641   1.085       .  S
C637        C638   1.406       .  A
C638       Br639   1.918       .  S
C643        C644   1.406       .  A
C643        C648   1.407       .  A
C643        H650   1.084       .  S
C644        C645   1.412       .  A
C645        C646   1.402       .  A
C645       Br652   1.919       .  S
C646        C647   1.402       .  A
C646        H651   1.083       .  S
C647        C648   1.411       .  A
C648       Br649   1.919       .  S
C653        C654   1.407       .  A
C653        C658   1.406       .  A
C653        H660   1.084       .  S
C654        C655   1.411       .  A
C655        C656   1.397       .  A
C655       Br662   1.922       .  S
C656        C657   1.406       .  A
C656        H661   1.084       .  S
C657        C658   1.411       .  A
C658       Br659   1.917       .  S
C663        C664   1.405       .  A
C663        C668   1.403       .  A
C663        H670   1.079       .  S
C664        C665   1.415       .  A
C665        C666   1.391       .  A
C665       Br672   1.925       .  S
C666        C667   1.403       .  A
C666        H671   1.082       .  S
C667        C668   1.420       .  A
C668       Br669   1.924       .  S
C673        C674   1.406       .  A
C673        C678   1.396       .  A
C673        H680   1.084       .  S
C674       C1507   1.411       .  A
C675        C676   1.394       .  A
C675       C1506   1.411   1_554  A
C675       Br682   1.922       .  S
C676        C677   1.402       .  A
C676        H681   1.084       .  S
C677       C1510   1.406   1_554  A
C678       C1509   1.406       .  A
C678       Br679   1.920       .  S
C683        C684   1.403       .  A
C683        C688   1.402       .  A
C683        H690   1.084       .  S
C684        C685   1.412       .  A
C685        C686   1.408       .  A
C685       Br692   1.919       .  S
C686        C687   1.411       .  A
C686        H691   1.082       .  S
C687        C688   1.421       .  A
C688       Br689   1.923       .  S
C693        C694   1.411       .  A
C693        C698   1.404       .  A
C693        H700   1.083       .  S
C694        C695   1.416       .  A
C695        C696   1.393       .  A
C695       Br702   1.927       .  S
C696        C697   1.407       .  A
C696        H701   1.085       .  S
C697        C698   1.413       .  A
C698       Br699   1.920       .  S
C703        C704   1.401       .  A
C703        C708   1.399       .  A
C703        H710   1.084       .  S
C704        C705   1.403       .  A
C705        C706   1.398       .  A
C705       Br712   1.921       .  S
C706        C707   1.409       .  A
C706        H711   1.083       .  S
C707        C708   1.411       .  A
C708       Br709   1.919       .  S
C713        C714   1.405       .  A
C713        C718   1.401       .  A
C713        H720   1.085       .  S
C714        C715   1.414       .  A
C715        C716   1.399       .  A
C715       Br722   1.923       .  S
C716        C717   1.403       .  A
C716        H721   1.085       .  S
C717        C718   1.410       .  A
C718       Br719   1.918       .  S
C723        C724   1.409       .  A
C723        C728   1.404       .  A
C723        H730   1.083       .  S
C724        C725   1.406       .  A
C725        C726   1.402       .  A
C725       Br732   1.919       .  S
C726        C727   1.407       .  A
C726        H731   1.082       .  S
C727        C728   1.404       .  A
C728       Br729   1.915       .  S
C733        C734   1.405       .  A
C733        C738   1.393       .  A
C733        H740   1.084       .  S
C734        C735   1.415       .  A
C735        C736   1.414       .  A
C735       Br742   1.918       .  S
C736        C737   1.412       .  A
C736        H741   1.083       .  S
C737        C738   1.415       .  A
C738       Br739   1.923       .  S
C743        C744   1.407       .  A
C743        C748   1.408       .  A
C743        H750   1.083       .  S
C744       C1577   1.412       .  A
C745        C746   1.391       .  A
C745       C1576   1.412   1_554  A
C745       Br752   1.923       .  S
C746        C747   1.405       .  A
C746        H751   1.083       .  S
C747       C1580   1.419   1_554  A
C748       C1579   1.419       .  A
C748       Br749   1.923       .  S
C753        C754   1.402       .  A
C753        C758   1.385   1_545  A
C753        H760   1.084       .  S
C754        C755   1.403       .  A
C755        C756   1.398   1_545  A
C755       Br762   1.917       .  S
C756        C757   1.405       .  A
C756        H761   1.083       .  S
C757        C758   1.403       .  A
C758       Br759   1.924       .  S
C763        C764   1.400       .  A
C763        C768   1.396       .  A
C763        H770   1.083       .  S
C764        C765   1.414       .  A
C765        C766   1.397       .  A
C765       Br772   1.919       .  S
C766        C767   1.401       .  A
C766        H771   1.084       .  S
C767        C768   1.413       .  A
C768       Br769   1.912       .  S
C773        C774   1.406       .  A
C773        C778   1.404       .  A
C773        H780   1.084       .  S
C774        C775   1.416       .  A
C775        C776   1.397       .  A
C775       Br782   1.920       .  S
C776        C777   1.403       .  A
C776        H781   1.085       .  S
C777        C778   1.415       .  A
C778       Br779   1.919       .  S
C783        C784   1.410       .  A
C783        C788   1.399       .  A
C783        H790   1.082       .  S
C784        C785   1.418       .  A
C785        C786   1.393       .  A
C785       Br792   1.926       .  S
C786        C787   1.407       .  A
C786        H791   1.084       .  S
C787        C788   1.411       .  A
C788       Br789   1.920       .  S
C793        C794   1.411       .  A
C793        C798   1.409   1_545  A
C793        H800   1.084       .  S
C794        C795   1.416       .  A
C795        C796   1.407   1_545  A
C795       Br802   1.921       .  S
C796        C797   1.408       .  A
C796        H801   1.084       .  S
C797        C798   1.414       .  A
C798       Br799   1.921       .  S
C803        C804   1.406       .  A
C803        C808   1.397       .  A
C803        H810   1.083       .  S
C804        C805   1.417       .  A
C805        C806   1.404       .  A
C805       Br812   1.920       .  S
C806        C807   1.402       .  A
C806        H811   1.083       .  S
C807        C808   1.407       .  A
C808       Br809   1.921       .  S
C813        C814   1.402       .  A
C813        C818   1.398       .  A
C813        H820   1.084       .  S
C814        C856   1.467   1_554  S
C814        C815   1.414       .  A
C815        C816   1.393       .  A
C815       Br822   1.918       .  S
C816        C817   1.394       .  A
C816        H821   1.084       .  S
C817        C818   1.408       .  A
C818       Br819   1.919       .  S
C823        C824   1.402       .  A
C823        C828   1.405       .  A
C823        H830   1.081       .  S
C824        C825   1.415       .  A
C825        C826   1.401       .  A
C825       Br832   1.910       .  S
C826        C827   1.398       .  A
C826        H831   1.084       .  S
C827        C828   1.413       .  A
C828       Br829   1.914       .  S
O833        C848   1.268       .  A
O833       Al841   1.934       .  S
C834        O844   1.264       .  A
C834        O835   1.253       .  A
C834       C1649   1.457       .  S
O835       Al837   1.869       .  S
O836        C838   1.267       .  A
O836       Al837   1.933       .  S
Al837       O845   1.928       .  S
Al837       O847   1.904       .  S
Al837       O846   1.782       .  S
C838        O851   1.264       .  A
C838       C1606   1.489       .  S
O839        C849   1.259       .  A
O839       Al841   1.923       .  S
O840        C853   1.265       .  A
O840       Al850   1.912       .  S
Al841       O854   1.896       .  S
Al841       O851   1.903       .  S
Al841       O846   1.781       .  S
O842        C849   1.263       .  A
O842       Al850   1.922       .  S
O843        C852   1.263       .  A
O843       Al850   1.920       .  S
O844       Al850   1.919       .  S
O845        C852   1.264       .  A
O846       Al850   1.777       .  S
O847        C848   1.261       .  A
C848       C1636   1.487       .  S
C849       C1656   1.489       .  S
C852       C1629   1.501       .  S
C853        O854   1.268       .  A
C853       C1616   1.484       .  S
O855        C870   1.260       .  A
O855       Al863   1.901       .  S
C856        O866   1.268       .  A
C856        O857   1.260       .  A
O857       Al859   1.898       .  S
O858        C860   1.254       .  A
O858       Al859   1.855       .  S
Al859       O867   1.862       .  S
Al859       O869   1.906       .  S
Al859       O868   1.765       .  S
C860        O873   1.274       .  A
C860       C1576   1.484       .  S
O861        C871   1.270       .  A
O861       Al863   1.938       .  S
O862        C875   1.268       .  A
O862       Al872   1.911       .  S
Al863       O876   1.920       .  S
Al863       O873   1.970       .  S
Al863       O868   1.781       .  S
O864        C871   1.260       .  A
O864       Al872   1.883       .  S
O865        C874   1.262       .  A
O865       Al872   1.924       .  S
O866       Al872   1.925       .  S
O867        C874   1.257       .  A
O868       Al872   1.773       .  S
O869        C870   1.256       .  A
C870       C1596   1.476       .  S
C871       C1566   1.496       .  S
C874       C1589   1.456       .  S
C875        O876   1.268       .  A
C875       C1639   1.474       .  S
O877        C892   1.264       .  A
O877       Al885   1.922       .  S
C878        O888   1.266       .  A
C878        O879   1.257       .  A
C878       C1536   1.465       .  S
O879       Al881   1.883       .  S
O880        C882   1.270       .  A
O880       Al881   1.936       .  S
Al881       O889   1.939       .  S
Al881       O891   1.907       .  S
Al881       O890   1.781       .  S
C882        O895   1.265       .  A
C882       C1516   1.493       .  S
O883        C893   1.259       .  A
O883       Al885   1.925       .  S
O884        C897   1.268       .  A
O884       Al894   1.926       .  S
Al885       O898   1.898       .  S
Al885       O895   1.911       .  S
Al885       O890   1.789       .  S
O886        C893   1.261       .  A
O886       Al894   1.910       .  S
O887        C896   1.263       .  A
O887       Al894   1.913       .  S
O888       Al894   1.923       .  S
O889        C896   1.265       .  A
O890       Al894   1.777       .  S
O891        C892   1.263       .  A
C892       C1546   1.484       .  S
C893       C1559   1.482       .  S
C896       C1626   1.505       .  S
C897        O898   1.266       .  A
C897       C1526   1.491       .  S
O899        C914   1.256       .  A
O899       Al907   1.883       .  S
C900        O910   1.270       .  A
C900        O901   1.263       .  A
C900       C1539   1.476       .  S
O901       Al903   1.912       .  S
O902        C904   1.250       .  A
O902       Al903   1.849       .  S
Al903       O911   1.869       .  S
Al903       O913   1.909       .  S
Al903       O912   1.763       .  S
C904        O917   1.272       .  A
C904       C1496   1.480       .  S
O905        C915   1.266       .  A
O905       Al907   1.918       .  S
O906       Al916   1.911       .  S
Al907       O917   1.963       .  S
Al907       O912   1.775       .  S
O908        C915   1.260       .  A
O908       Al916   1.900       .  S
O909        C918   1.263       .  A
O909       Al916   1.930       .  S
O910       Al916   1.925       .  S
O911        C918   1.256       .  A
O912       Al916   1.773       .  S
O913        C914   1.260       .  A
C914       C1506   1.471       .  S
C915       C1486   1.483       .  S
C918       C1586   1.455       .  S
C919        O920   1.271       .  A
C919       C1549   1.478       .  S
O921        C936   1.268       .  A
O921       Al929   1.933       .  S
C922        O932   1.272       .  A
C922        O923   1.263       .  A
C922       C1479   1.483       .  S
O923       Al925   1.902       .  S
O924        C926   1.260       .  A
O924       Al925   1.908       .  S
Al925       O933   1.893       .  S
Al925       O935   1.897       .  S
Al925       O934   1.776       .  S
C926        O939   1.264       .  A
C926       C1446   1.480       .  S
O927        C937   1.260       .  A
O927       Al929   1.920       .  S
O928        C941   1.271       .  A
O928       Al938   1.924       .  S
Al929       O942   1.893       .  S
Al929       O939   1.913       .  S
Al929       O934   1.786       .  S
O930        C937   1.262       .  A
O930       Al938   1.910       .  S
O931        C940   1.263       .  A
O931       Al938   1.928       .  S
O932       Al938   1.949       .  S
O933        C940   1.255       .  A
O934       Al938   1.769       .  S
O935        C936   1.263       .  A
C937       C1659   1.482       .  S
C940       C1456   1.486       .  S
C941        O942   1.262       .  A
C941       C1579   1.489       .  S
O943        C958   1.262       .  A
O943       Al951   1.907       .  S
C944        O954   1.269       .  A
C944        O945   1.260       .  A
C944       C1476   1.484       .  S
O945       Al947   1.912       .  S
O946        C948   1.255       .  A
O946       Al947   1.863       .  S
Al947       O955   1.880       .  S
Al947       O957   1.908       .  S
Al947       O956   1.770       .  S
C948        O961   1.270       .  A
C948       C1619   1.481       .  S
O949        C959   1.272       .  A
O949       Al951   1.941       .  S
O950        C963   1.272       .  A
O950       Al960   1.920       .  S
Al951       O964   1.905       .  S
Al951       O961   1.952       .  S
Al951       O956   1.774       .  S
O952        C959   1.257       .  A
O952       Al960   1.890       .  S
O953        C962   1.269       .  A
O953       Al960   1.935       .  S
O954       Al960   1.947       .  S
O955        C962   1.257       .  A
O956       Al960   1.764       .  S
O957        C958   1.257       .  A
C958       C1599   1.476       .  S
C959       C1426   1.499       .  S
C962       C1436   1.467       .  S
C963        O964   1.266       .  A
C963       C1469   1.473       .  S
O965        C980   1.258       .  A
O965       Al973   1.900       .  S
C966        O976   1.269       .  A
C966        O967   1.259       .  A
C966       C1419   1.488       .  S
O967       Al969   1.908       .  S
O968        C970   1.255       .  A
O968       Al969   1.858       .  S
Al969       O977   1.881       .  S
Al969       O979   1.904       .  S
Al969       O978   1.769       .  S
C970        O983   1.274       .  A
C970       C1529   1.488       .  S
O971        C981   1.273       .  A
O971       Al973   1.952       .  S
O972       Al982   1.914       .  S
Al973       O986   1.890       .  S
Al973       O983   1.972       .  S
Al973       O978   1.783       .  S
O974        C981   1.266       .  A
O974       Al982   1.913       .  S
O975        C984   1.275       .  A
O975       Al982   1.966       .  S
O976       Al982   1.944       .  S
O977        C984   1.257       .  A
O978       Al982   1.767       .  S
O979        C980   1.256       .  A
C980       C1509   1.466       .  S
C981       C1399   1.524       .  S
C984       C1459   1.481       .  S
C985       C1406   1.468       .  S
O987       C1002   1.269       .  A
O987       Al995   1.925       .  S
C988        O998   1.272       .  A
C988        O989   1.262       .  A
C988       C1416   1.486       .  S
O989       Al991   1.898       .  S
O990        C992   1.262       .  A
O990       Al991   1.895       .  S
Al991       O999   1.890       .  S
Al991      O1001   1.882       .  S
Al991      O1000   1.776       .  S
C992       O1005   1.259       .  A
C992       C1386   1.478       .  S
O993       C1003   1.266       .  A
O993       Al995   1.938       .  S
O994       C1007   1.269       .  A
O994      Al1004   1.931       .  S
Al995      O1008   1.878       .  S
Al995      O1005   1.893       .  S
Al995      O1000   1.778       .  S
O996       C1003   1.264       .  A
O996      Al1004   1.900       .  S
O997       C1006   1.263       .  A
O997      Al1004   1.912       .  S
O998      Al1004   1.947       .  S
O999       C1006   1.257       .  A
O1000     Al1004   1.767       .  S
O1001      C1002   1.257       .  A
C1002      C1409   1.473       .  S
C1003      C1556   1.481       .  S
C1006      C1439   1.474       .  S
C1007      O1008   1.255       .  A
C1007      C1499   1.486       .  S
O1009      C1024   1.259       .  A
O1009     Al1017   1.890       .  S
C1010      O1020   1.267       .  A
C1010      O1011   1.254       .  A
C1010      C1356   1.479       .  S
O1011     Al1013   1.878       .  S
O1012      C1014   1.252       .  A
O1012     Al1013   1.861       .  S
Al1013     O1021   1.849       .  S
Al1013     O1023   1.895       .  S
Al1013     O1022   1.749       .  S
C1014      O1027   1.273       .  A
C1014      C1336   1.491       .  S
O1015      C1025   1.266       .  A
O1015     Al1017   1.906       .  S
O1016      C1029   1.267       .  A
O1016     Al1026   1.907       .  S
Al1017     O1030   1.927       .  S
Al1017     O1027   1.984       .  S
Al1017     O1022   1.779       .  S
O1018      C1025   1.268       .  A
O1018     Al1026   1.906       .  S
O1019      C1028   1.272       .  A
O1019     Al1026   1.957       .  S
O1020     Al1026   1.938       .  S
O1021      C1028   1.253       .  A
O1022     Al1026   1.766       .  S
O1023      C1024   1.259       .  A
C1024      C1376   1.459       .  S
C1025      C1449   1.480       .  S
C1028      C1346   1.472       .  S
C1029      O1030   1.268       .  A
C1029      C1366   1.472       .  S
O1031      C1046   1.271       .  A
O1031     Al1039   1.939       .  S
C1032      O1042   1.272       .  A
C1032      O1033   1.258       .  A
C1032      C1359   1.477       .  S
O1033     Al1035   1.889       .  S
O1034      C1036   1.269       .  A
O1034     Al1035   1.936       .  S
Al1035     O1043   1.947       .  S
Al1035     O1045   1.889       .  S
Al1035     O1044   1.782       .  S
C1036      O1049   1.264       .  A
C1036      C1429   1.503       .  S
O1037      C1047   1.263       .  A
O1037     Al1039   1.939       .  S
O1038      C1051   1.276       .  A
O1038     Al1048   1.959       .  S
Al1039     O1052   1.902       .  S
Al1039     O1049   1.918       .  S
Al1039     O1044   1.783       .  S
O1040      C1047   1.257       .  A
O1040     Al1048   1.893       .  S
O1041      C1050   1.264       .  A
O1041     Al1048   1.916       .  S
O1042     Al1048   1.934       .  S
O1043      C1050   1.266       .  A
O1044     Al1048   1.766       .  S
O1045      C1046   1.261       .  A
C1046      C1369   1.479       .  S
C1047      C1326   1.482       .  S
C1050      C1316   1.508       .  S
C1051      O1052   1.264       .  A
C1051      C1306   1.508       .  S
O1053      C1068   1.248       .  A
O1053     Al1061   1.865       .  S
C1054      O1064   1.270       .  A
C1054      O1055   1.268       .  A
C1054      C1269   1.470       .  S
O1055     Al1057   1.927       .  S
O1056      C1058   1.250       .  A
O1056     Al1057   1.853       .  S
Al1057     O1065   1.898       .  S
Al1057     O1067   1.957       .  S
Al1057     O1066   1.762       .  S
C1058      O1071   1.278       .  A
C1058      C1299   1.490       .  S
O1059      C1069   1.262       .  A
O1059     Al1061   1.911       .  S
O1060      C1073   1.266       .  A
O1060     Al1070   1.888       .  S
Al1061     O1074   1.946       .  S
Al1061     O1071   1.991       .  S
Al1061     O1066   1.770       .  S
O1062      C1069   1.262       .  A
O1062     Al1070   1.908       .  S
O1063      C1072   1.264       .  A
O1063     Al1070   1.923       .  S
O1064     Al1070   1.912       .  S
O1065      C1072   1.266       .  A
O1066     Al1070   1.773       .  S
O1067      C1068   1.270       .  A
C1068      C1289   1.493       .  S
C1069      C1609   1.487       .  S
C1072      C1349   1.473       .  S
C1073      O1074   1.277       .  A
C1073      C1276   1.482       .  S
O1075      C1090   1.254       .  A
O1075     Al1083   1.887       .  S
C1076      O1086   1.263       .  A
C1076      O1077   1.259       .  A
C1076      C1266   1.466       .  S
O1077     Al1079   1.893       .  S
O1078      C1080   1.271       .  A
O1078     Al1079   1.941       .  S
Al1079     O1087   1.940       .  S
Al1079     O1089   1.930       .  S
Al1079     O1088   1.781       .  S
C1080      O1093   1.270       .  A
C1080      C1569   1.497       .  S
O1081      C1091   1.251       .  A
O1081     Al1083   1.894       .  S
O1082      C1095   1.271       .  A
O1082     Al1092   1.922       .  S
Al1083     O1096   1.905       .  S
Al1083     O1093   1.922       .  S
Al1083     O1088   1.787       .  S
O1084      C1091   1.257       .  A
O1084     Al1092   1.916       .  S
O1085      C1094   1.257       .  A
O1085     Al1092   1.902       .  S
O1086     Al1092   1.907       .  S
O1087      C1094   1.265       .  A
O1088     Al1092   1.779       .  S
O1089      C1090   1.265       .  A
C1090      C1279   1.483       .  S
C1091      C1246   1.477       .  S
C1094      C1319   1.505       .  S
C1095      O1096   1.269       .  A
C1095      C1256   1.482       .  S
O1097      C1112   1.270       .  A
O1097     Al1105   1.936       .  S
C1098      O1108   1.272       .  A
C1098      O1099   1.263       .  A
C1098      C1226   1.483       .  S
O1099     Al1101   1.900       .  S
O1100      C1102   1.261       .  A
O1100     Al1101   1.906       .  S
Al1101     O1109   1.902       .  S
Al1101     O1111   1.891       .  S
Al1101     O1110   1.780       .  S
C1102      O1115   1.262       .  A
C1102      C1389   1.475       .  S
O1103      C1113   1.262       .  A
O1103     Al1105   1.928       .  S
O1104      C1117   1.270       .  A
O1104     Al1114   1.939       .  S
Al1105     O1118   1.886       .  S
Al1105     O1115   1.902       .  S
Al1105     O1110   1.782       .  S
O1106      C1113   1.264       .  A
O1106     Al1114   1.915       .  S
O1107      C1116   1.267       .  A
O1107     Al1114   1.927       .  S
O1108     Al1114   1.940       .  S
O1109      C1116   1.255       .  A
O1110     Al1114   1.763       .  S
O1111      C1112   1.260       .  A
C1112      C1236   1.476       .  S
C1113      C1329   1.485       .  S
C1116      C1216   1.494       .  S
C1117      O1118   1.262       .  A
C1117      C1339   1.492       .  S
O1119      C1134   1.255       .  A
O1119     Al1127   1.877       .  S
C1120      O1130   1.269       .  A
C1120      O1121   1.265       .  A
C1120      C1229   1.489       .  S
O1121     Al1123   1.910       .  S
O1122      C1124   1.252       .  A
O1122     Al1123   1.860       .  S
Al1123     O1131   1.880   1_556  S
C1124      C1309   1.505       .  S
O1125      C1135   1.275       .  A
O1125     Al1127   1.954       .  S
O1126      C1139   1.270       .  A
O1126     Al1136   1.915       .  S
Al1127     O1140   1.922       .  S
Al1127     O1137   1.998       .  S
Al1127     O1132   1.782       .  S
O1128      C1135   1.264       .  A
O1128     Al1136   1.917       .  S
O1129      C1138   1.271       .  A
O1129     Al1136   1.966       .  S
O1132     Al1136   1.769       .  S
O1133      C1134   1.258       .  A
C1134      C1379   1.457       .  S
C1135      C1396   1.518       .  S
C1138      C1209   1.486       .  S
C1139      O1140   1.270       .  A
C1139      C1239   1.473       .  S
O1141      C1156   1.277       .  A
O1141     Al1149   1.960       .  S
C1142      O1152   1.271       .  A
C1142      O1143   1.258       .  A
C1142      C1189   1.467       .  S
O1143     Al1145   1.874       .  S
O1144      C1146   1.260   1_554  A
O1144     Al1145   1.908   1_554  S
Al1145     O1154   1.782   1_556  S
C1146      C1489   1.486       .  S
O1147      C1157   1.265       .  A
O1148      C1161   1.271       .  A
Al1149     O1162   1.902       .  S
Al1149     O1159   1.919       .  S
O1150      C1157   1.261       .  A
O1150     Al1158   1.888       .  S
O1151     Al1158   1.931   1_554  S
O1152     Al1158   1.951       .  S
O1153      C1160   1.258       .  A
O1154     Al1158   1.767   1_554  S
O1155      C1156   1.256       .  A
C1156      C1196   1.491       .  S
C1157      C1249   1.479       .  S
C1160      C1206   1.494       .  S
C1161      O1162   1.262       .  A
C1161      C1296   1.503       .  S
O1163      C1178   1.271       .  A
O1163     Al1171   1.933       .  S
C1164      O1174   1.265       .  A
C1164      O1165   1.259       .  A
C1164      C1199   1.479       .  S
O1165     Al1167   1.907       .  S
O1166      C1168   1.271       .  A
O1166     Al1167   1.943       .  S
Al1167     O1175   1.982       .  S
Al1167     O1177   1.902       .  S
Al1167     O1176   1.765       .  S
C1168      O1181   1.274       .  A
C1168      C1519   1.506       .  S
O1169      C1179   1.272       .  A
O1169     Al1171   1.993       .  S
O1170      C1183   1.272       .  A
O1170     Al1180   1.957       .  S
Al1171     O1184   1.883       .  S
Al1171     O1181   1.925       .  S
Al1171     O1176   1.780       .  S
O1172      C1179   1.238       .  A
O1172     Al1180   1.847       .  S
O1173      C1182   1.248       .  A
O1173     Al1180   1.845       .  S
O1174     Al1180   1.926       .  S
O1175      C1182   1.275       .  A
O1176     Al1180   1.759       .  S
O1177      C1178   1.265       .  A
C1178      C1186   1.491       .  S
C1179      C1286   1.492       .  S
C1182      C1219   1.495       .  S
C1183      O1184   1.263       .  A
C1183      C1259   1.477       .  S
C1185      C1186   1.408       .  A
C1185      C1190   1.393       .  A
C1185      H1192   1.083       .  S
C1186      C1187   1.421       .  A
C1187      C1188   1.405       .  A
C1187     Br1194   1.921       .  S
C1188      C1189   1.400       .  A
C1188      H1193   1.084       .  S
C1189      C1190   1.403       .  A
C1190     Br1191   1.919       .  S
C1195      C1196   1.398       .  A
C1195      C1200   1.394       .  A
C1195      H1202   1.084       .  S
C1196      C1197   1.425       .  A
C1197      C1198   1.405       .  A
C1197     Br1204   1.922       .  S
C1198      C1199   1.397       .  A
C1198      H1203   1.084       .  S
C1199      C1200   1.413       .  A
C1200     Br1201   1.903       .  S
C1205      C1206   1.406       .  A
C1205      C1210   1.405   1_455  A
C1205      H1212   1.083       .  S
C1207      C1208   1.401   1_456  A
C1207     Br1214   1.924       .  S
C1208      H1213   1.083   1_554  S
C1209      C1210   1.413       .  A
C1210     Br1211   1.921       .  S
C1215      C1216   1.399       .  A
C1215      C1220   1.399   1_655  A
C1215      H1222   1.084       .  S
C1216      C1217   1.423       .  A
C1217      C1218   1.406   1_655  A
C1217     Br1224   1.922       .  S
C1218      C1219   1.402       .  A
C1218      H1223   1.084       .  S
C1219      C1220   1.424       .  A
C1220     Br1221   1.926       .  S
C1225      C1226   1.409       .  A
C1225      C1230   1.409       .  A
C1225      H1232   1.084       .  S
C1226      C1227   1.408       .  A
C1227      C1228   1.394       .  A
C1227     Br1234   1.922       .  S
C1228      C1229   1.407       .  A
C1228      H1233   1.084       .  S
C1229      C1230   1.414       .  A
C1230     Br1231   1.920       .  S
C1235      C1236   1.400       .  A
C1235      C1240   1.394       .  A
C1235      H1242   1.084       .  S
C1236      C1237   1.415       .  A
C1237      C1238   1.402       .  A
C1237     Br1244   1.921       .  S
C1238      C1239   1.402       .  A
C1238      H1243   1.084       .  S
C1239      C1240   1.409       .  A
C1240     Br1241   1.917       .  S
C1245      C1246   1.402       .  A
C1245      C1250   1.403       .  A
C1245      H1252   1.082       .  S
C1246      C1247   1.414       .  A
C1247      C1248   1.395       .  A
C1247     Br1254   1.917       .  S
C1248      C1249   1.400       .  A
C1248      H1253   1.080       .  S
C1249      C1250   1.411       .  A
C1250     Br1251   1.913   1_556  S
C1255      C1256   1.403       .  A
C1255      C1260   1.394       .  A
C1255      H1262   1.084       .  S
C1256      C1257   1.412       .  A
C1257      C1258   1.403       .  A
C1257     Br1264   1.918       .  S
C1258      C1259   1.404       .  A
C1258      H1263   1.084       .  S
C1259      C1260   1.410       .  A
C1260     Br1261   1.917       .  S
C1265      C1266   1.399       .  A
C1265      H1272   1.084       .  S
C1266      C1267   1.409       .  A
C1267     Br1274   1.917       .  S
C1268      C1269   1.403       .  A
C1268      H1273   1.084       .  S
C1269      C1270   1.411       .  A
C1270     Br1271   1.920       .  S
C1275      C1276   1.399       .  A
C1275      C1280   1.394       .  A
C1275      H1282   1.085       .  S
C1276      C1277   1.417       .  A
C1277      C1278   1.403       .  A
C1277     Br1284   1.919       .  S
C1278      C1279   1.403       .  A
C1278      H1283   1.084       .  S
C1279      C1280   1.418       .  A
C1280     Br1281   1.925       .  S
C1285      C1286   1.401       .  A
C1285      C1290   1.403       .  A
C1285      H1292   1.091       .  S
C1286      C1287   1.425       .  A
C1287      C1288   1.395       .  A
C1287     Br1294   1.931       .  S
C1288      C1289   1.400       .  A
C1288      H1293   1.085       .  S
C1289      C1290   1.424       .  A
C1290     Br1291   1.923       .  S
C1295      C1296   1.408       .  A
C1295      C1300   1.398       .  A
C1295      H1302   1.083       .  S
C1296      C1297   1.424       .  A
C1297      C1298   1.409       .  A
C1297     Br1304   1.919       .  S
C1298      C1299   1.403       .  A
C1298      H1303   1.083       .  S
C1299      C1300   1.416       .  A
C1300     Br1301   1.922       .  S
C1305      C1306   1.404       .  A
C1305      C1310   1.401       .  A
C1305      H1312   1.101       .  S
C1306      C1307   1.424       .  A
C1307      C1308   1.414       .  A
C1307     Br1314   1.922       .  S
C1308      C1309   1.409       .  A
C1308      H1313   1.070       .  S
C1309      C1310   1.421       .  A
C1310     Br1311   1.926       .  S
C1315      C1316   1.409       .  A
C1315      C1320   1.408   1_655  A
C1315      H1322   1.084       .  S
C1316      C1317   1.419       .  A
C1317      C1318   1.410   1_655  A
C1317     Br1324   1.920       .  S
C1318      C1319   1.408       .  A
C1318      H1323   1.084       .  S
C1319      C1320   1.417       .  A
C1320     Br1321   1.922       .  S
C1325      C1326   1.408       .  A
C1325      C1330   1.403       .  A
C1325      H1332   1.082       .  S
C1326      C1327   1.407       .  A
C1327      C1328   1.404       .  A
C1327     Br1334   1.919       .  S
C1328      C1329   1.408       .  A
C1328      H1333   1.082       .  S
C1329      C1330   1.404       .  A
C1330     Br1331   1.912       .  S
C1335      C1336   1.408       .  A
C1335      C1340   1.393       .  A
C1335      H1342   1.084       .  S
C1336      C1337   1.413       .  A
C1337      C1338   1.406       .  A
C1337     Br1344   1.921       .  S
C1338      C1339   1.413       .  A
C1338      H1343   1.083       .  S
C1339      C1340   1.414       .  A
C1340     Br1341   1.926       .  S
C1345      C1346   1.403       .  A
C1345      C1350   1.399   1_655  A
C1345      H1352   1.084       .  S
C1346      C1347   1.414       .  A
C1347      C1348   1.391   1_655  A
C1347     Br1354   1.927       .  S
C1348      C1349   1.401       .  A
C1348      H1353   1.083       .  S
C1349      C1350   1.412       .  A
C1350     Br1351   1.918       .  S
C1355      C1356   1.404       .  A
C1355      C1360   1.405       .  A
C1355      H1362   1.086       .  S
C1356      C1357   1.418       .  A
C1357      C1358   1.389       .  A
C1357     Br1364   1.926       .  S
C1358      C1359   1.395       .  A
C1358      H1363   1.085       .  S
C1359      C1360   1.416       .  A
C1360     Br1361   1.916       .  S
C1365      C1366   1.401       .  A
C1365      H1372   1.083       .  S
C1366      C1367   1.409       .  A
C1367     Br1374   1.919       .  S
C1368      C1369   1.403       .  A
C1368      H1373   1.083       .  S
C1369      C1370   1.415       .  A
C1370     Br1371   1.920       .  S
C1375      C1376   1.403       .  A
C1375      C1380   1.387       .  A
C1375      H1382   1.084       .  S
C1376      C1377   1.406       .  A
C1377      C1378   1.392       .  A
C1377     Br1384   1.919       .  S
C1378      C1379   1.404       .  A
C1378      H1383   1.084       .  S
C1379      C1380   1.407       .  A
C1380     Br1381   1.921       .  S
C1385      C1386   1.403       .  A
C1385      C1390   1.385       .  A
C1385      H1392   1.083       .  S
C1386      C1387   1.414       .  A
C1387      C1388   1.401       .  A
C1387     Br1394   1.921       .  S
C1388      C1389   1.406       .  A
C1388      H1393   1.083       .  S
C1389      C1390   1.413       .  A
C1390     Br1391   1.925       .  S
C1395      C1396   1.416       .  A
C1395      C1400   1.426       .  A
C1395      H1402   1.083       .  S
C1396      C1397   1.419       .  A
C1397      C1398   1.398       .  A
C1398      C1399   1.410       .  A
C1398      H1403   1.084       .  S
C1399      C1400   1.423       .  A
C1400     Br1401   1.916       .  S
C1405      C1406   1.401       .  A
C1405      C1410   1.401       .  A
C1405      H1412   1.084       .  S
C1406      C1407   1.412       .  A
C1407      C1408   1.386       .  A
C1407     Br1414   1.920       .  S
C1408      C1409   1.398       .  A
C1408      H1413   1.085       .  S
C1409      C1410   1.417       .  A
C1410     Br1411   1.921       .  S
C1415      C1416   1.402       .  A
C1415      C1420   1.399       .  A
C1415      H1422   1.083       .  S
C1416      C1417   1.415       .  A
C1417      C1418   1.407       .  A
C1417     Br1424   1.920       .  S
C1418      C1419   1.406       .  A
C1418      H1423   1.083       .  S
C1419      C1420   1.415       .  A
C1420     Br1421   1.923       .  S
C1425      C1426   1.407       .  A
C1425      C1430   1.411       .  A
C1425      H1432   1.082       .  S
C1426      C1427   1.421       .  A
C1427      C1428   1.398       .  A
C1427     Br1434   1.927       .  S
C1428      C1429   1.405       .  A
C1428      H1433   1.084       .  S
C1429      C1430   1.419       .  A
C1430     Br1431   1.918       .  S
C1435      C1436   1.397   1_545  A
C1435      C1440   1.389       .  A
C1435      H1442   1.085   1_545  S
C1436      C1437   1.411   1_565  A
C1437      C1438   1.400       .  A
C1437     Br1444   1.921   1_545  S
C1438      C1439   1.405       .  A
C1438      H1443   1.084       .  S
C1439      C1440   1.415       .  A
C1440     Br1441   1.924       .  S
C1445      C1446   1.404       .  A
C1445      C1450   1.403       .  A
C1445      H1452   1.083       .  S
C1446      C1447   1.416       .  A
C1447      C1448   1.390       .  A
C1447     Br1454   1.922       .  S
C1448      C1449   1.401       .  A
C1448      H1453   1.084       .  S
C1449      C1450   1.416       .  A
C1450     Br1451   1.919       .  S
C1455      C1456   1.405       .  A
C1455      C1460   1.405   1_565  A
C1455      H1462   1.083       .  S
C1456      C1457   1.417       .  A
C1457      C1458   1.397   1_565  A
C1457     Br1464   1.922       .  S
C1458      C1459   1.399       .  A
C1458      H1463   1.083       .  S
C1459      C1460   1.415       .  A
C1460     Br1461   1.920       .  S
C1465      C1466   1.408       .  A
C1465      C1470   1.401       .  A
C1465      H1472   1.084       .  S
C1466      C1467   1.411       .  A
C1467      C1468   1.397       .  A
C1467     Br1474   1.921       .  S
C1468      C1469   1.405       .  A
C1468      H1473   1.085       .  S
C1469      C1470   1.406       .  A
C1470     Br1471   1.918       .  S
C1475      C1476   1.406       .  A
C1475      C1480   1.407       .  A
C1475      H1482   1.084       .  S
C1476      C1477   1.412       .  A
C1477      C1478   1.402       .  A
C1477     Br1484   1.919       .  S
C1478      C1479   1.402       .  A
C1478      H1483   1.083       .  S
C1479      C1480   1.411       .  A
C1480     Br1481   1.919       .  S
C1485      C1486   1.407       .  A
C1485      C1490   1.406       .  A
C1485      H1492   1.084       .  S
C1486      C1487   1.411       .  A
C1487      C1488   1.397       .  A
C1487     Br1494   1.922       .  S
C1488      C1489   1.406       .  A
C1488      H1493   1.084       .  S
C1489      C1490   1.411       .  A
C1490     Br1491   1.917   1_556  S
C1495      C1496   1.405       .  A
C1495      C1500   1.403       .  A
C1495      H1502   1.079       .  S
C1496      C1497   1.415       .  A
C1497      C1498   1.391       .  A
C1497     Br1504   1.925       .  S
C1498      C1499   1.403       .  A
C1498      H1503   1.082       .  S
C1499      C1500   1.420       .  A
C1500     Br1501   1.924       .  S
C1505      C1506   1.406       .  A
C1505      C1510   1.396       .  A
C1505      H1512   1.084       .  S
C1507      C1508   1.394       .  A
C1507     Br1514   1.922       .  S
C1508      C1509   1.402       .  A
C1508      H1513   1.084       .  S
C1510     Br1511   1.920       .  S
C1515      C1516   1.403       .  A
C1515      C1520   1.402       .  A
C1515      H1522   1.084       .  S
C1516      C1517   1.412       .  A
C1517      C1518   1.408       .  A
C1517     Br1524   1.919       .  S
C1518      C1519   1.411       .  A
C1518      H1523   1.082       .  S
C1519      C1520   1.421       .  A
C1520     Br1521   1.923       .  S
C1525      C1526   1.411       .  A
C1525      C1530   1.404       .  A
C1525      H1532   1.083       .  S
C1526      C1527   1.416       .  A
C1527      C1528   1.393       .  A
C1527     Br1534   1.927       .  S
C1528      C1529   1.407       .  A
C1528      H1533   1.085       .  S
C1529      C1530   1.413       .  A
C1530     Br1531   1.920       .  S
C1535      C1536   1.401       .  A
C1535      C1540   1.399       .  A
C1535      H1542   1.084       .  S
C1536      C1537   1.403       .  A
C1537      C1538   1.398       .  A
C1537     Br1544   1.921       .  S
C1538      C1539   1.409       .  A
C1538      H1543   1.083       .  S
C1539      C1540   1.411       .  A
C1540     Br1541   1.919       .  S
C1545      C1546   1.405       .  A
C1545      C1550   1.401       .  A
C1545      H1552   1.085       .  S
C1546      C1547   1.414       .  A
C1547      C1548   1.399       .  A
C1547     Br1554   1.923       .  S
C1548      C1549   1.403       .  A
C1548      H1553   1.085       .  S
C1549      C1550   1.410       .  A
C1550     Br1551   1.918       .  S
C1555      C1556   1.409       .  A
C1555      C1560   1.404       .  A
C1555      H1562   1.083       .  S
C1556      C1557   1.406       .  A
C1557      C1558   1.402       .  A
C1557     Br1564   1.919       .  S
C1558      C1559   1.407       .  A
C1558      H1563   1.082       .  S
C1559      C1560   1.404       .  A
C1560     Br1561   1.915       .  S
C1565      C1566   1.405       .  A
C1565      C1570   1.393       .  A
C1565      H1572   1.084       .  S
C1566      C1567   1.415       .  A
C1567      C1568   1.414       .  A
C1567     Br1574   1.918       .  S
C1568      C1569   1.412       .  A
C1568      H1573   1.083       .  S
C1569      C1570   1.415       .  A
C1570     Br1571   1.923       .  S
C1575      C1576   1.407       .  A
C1575      C1580   1.408       .  A
C1575      H1582   1.083       .  S
C1577      C1578   1.391       .  A
C1577     Br1584   1.923       .  S
C1578      C1579   1.405       .  A
C1578      H1583   1.083       .  S
C1580     Br1581   1.923       .  S
C1585      C1586   1.402       .  A
C1585      C1590   1.385   1_545  A
C1585      H1592   1.084       .  S
C1586      C1587   1.403       .  A
C1587      C1588   1.398   1_545  A
C1587     Br1594   1.917       .  S
C1588      C1589   1.405       .  A
C1588      H1593   1.083       .  S
C1589      C1590   1.403       .  A
C1590     Br1591   1.924       .  S
C1595      C1596   1.400       .  A
C1595      C1600   1.396       .  A
C1595      H1602   1.083       .  S
C1596      C1597   1.414       .  A
C1597      C1598   1.397       .  A
C1597     Br1604   1.919       .  S
C1598      C1599   1.401       .  A
C1598      H1603   1.084       .  S
C1599      C1600   1.413       .  A
C1600     Br1601   1.912       .  S
C1605      C1606   1.406       .  A
C1605      C1610   1.404       .  A
C1605      H1612   1.084       .  S
C1606      C1607   1.416       .  A
C1607      C1608   1.397       .  A
C1607     Br1614   1.920       .  S
C1608      C1609   1.403       .  A
C1608      H1613   1.085       .  S
C1609      C1610   1.415       .  A
C1610     Br1611   1.919       .  S
C1615      C1616   1.410       .  A
C1615      C1620   1.399       .  A
C1615      H1622   1.082       .  S
C1616      C1617   1.418       .  A
C1617      C1618   1.393       .  A
C1617     Br1624   1.926       .  S
C1618      C1619   1.407       .  A
C1618      H1623   1.084       .  S
C1619      C1620   1.411       .  A
C1620     Br1621   1.920       .  S
C1625      C1626   1.411       .  A
C1625      C1630   1.409   1_545  A
C1625      H1632   1.084       .  S
C1626      C1627   1.416       .  A
C1627      C1628   1.407   1_545  A
C1627     Br1634   1.921       .  S
C1628      C1629   1.408       .  A
C1628      H1633   1.084       .  S
C1629      C1630   1.414       .  A
C1630     Br1631   1.921       .  S
C1635      C1636   1.406       .  A
C1635      C1640   1.397       .  A
C1635      H1642   1.083       .  S
C1636      C1637   1.417       .  A
C1637      C1638   1.404       .  A
C1637     Br1644   1.920       .  S
C1638      C1639   1.402       .  A
C1638      H1643   1.083       .  S
C1639      C1640   1.407       .  A
C1640     Br1641   1.921       .  S
C1645      C1646   1.402       .  A
C1645      C1650   1.398       .  A
C1645      H1652   1.084       .  S
C1646      C1647   1.414       .  A
C1647      C1648   1.393       .  A
C1647     Br1654   1.918       .  S
C1648      C1649   1.394       .  A
C1648      H1653   1.084       .  S
C1649      C1650   1.408       .  A
C1650     Br1651   1.919       .  S
C1655      C1656   1.402       .  A
C1655      C1660   1.405       .  A
C1655      H1662   1.081       .  S
C1656      C1657   1.415       .  A
C1657      C1658   1.401       .  A
C1657     Br1664   1.910       .  S
C1658      C1659   1.398       .  A
C1658      H1663   1.084       .  S
C1659      C1660   1.413       .  A
C1660     Br1661   1.914       .  S
