geometry optimzed in LAMMPS
_audit_creation_date              2020-12-01 
_audit_creation_method            'lammps2cif' 
_symmetry_space_group_name_H-M    'P1' 
_symmetry_Int_Tables_number       1 
_symmetry_cell_setting            triclinic 
loop_ 
_symmetry_equiv_pos_as_xyz 
  x,y,z 
_cell_length_a                    55.81065001 
_cell_length_b                    55.79015232696517 
_cell_length_c                    56.09970319977854 
_cell_angle_alpha                 90.10994201107286 
_cell_angle_beta                  89.91531603220129 
_cell_angle_gamma                 121.15443206310499 
loop_ 
_atom_site_label 
_atom_site_type_symbol 
_atom_site_fract_x 
_atom_site_fract_y 
_atom_site_fract_z 
_atom_site_charge 
O1          O  0.65869303  0.19192224  0.18769793    -0.82200
C2          C  0.55604561  0.14528935  0.23862309     0.97100
O3          O  0.57604239  0.17036746  0.23867826    -0.71400
O4          O  0.62430168  0.17712053  0.25198536    -0.74900
Al5        Al  0.61250411  0.18934153  0.22509343     1.49000
C6          C  0.64555832  0.17472385  0.25175603     0.92400
O7          O  0.61689546  0.11979785  0.21646588    -0.81200
O8          O  0.59033572  0.14535773  0.16248999    -0.74700
Al9        Al  0.63655138  0.15598234  0.20227701     1.90100
O10         O  0.57708766  0.10528336  0.19761786    -0.73800
O11         O  0.56486842  0.16595051  0.18772657    -0.73600
O12         O  0.55501683  0.12801308  0.22352991    -0.79300
O13         O  0.60131055  0.20481540  0.20060022    -0.77500
O14         O  0.60778326  0.16109362  0.20707406    -1.13600
O15         O  0.64991392  0.21480189  0.21495361    -0.72800
C16         C  0.66347643  0.21464341  0.19697129     0.97900
C17         C  0.59237918  0.10054791  0.21106502     0.94300
Al18       Al  0.57464124  0.13799398  0.19376685     1.55600
O19         O  0.65414464  0.17014218  0.23246162    -0.77500
C20         C  0.57831993  0.19235472  0.18958983     0.98400
C21         C  0.61063797  0.14303189  0.15573457     0.93300
O22         O  0.62612457  0.14092625  0.17087620    -0.82800
O23         O  0.81594873  0.33384656  0.46868608    -0.82200
C24         C  0.75824039  0.25604909  0.39456314     0.97100
O25         O  0.75795448  0.24952912  0.41633336    -0.71400
O26         O  0.80865274  0.27210821  0.43461755    -0.74900
Al27       Al  0.77690597  0.27269864  0.44437422     1.49000
C28         C  0.83410083  0.29100919  0.43339410     0.92400
O29         O  0.83204486  0.34362974  0.40295617    -0.81200
O30         O  0.76125989  0.33210974  0.42758122    -0.74700
Al31       Al  0.82113057  0.33609745  0.43550359     1.90100
O32         O  0.79211677  0.33536951  0.38900863    -0.73800
O33         O  0.73036408  0.27790111  0.42239207    -0.73600
O34         O  0.76709119  0.28102273  0.38856478    -0.79300
O35         O  0.74307958  0.26897485  0.45637889    -0.77500
O36         O  0.78790568  0.30521952  0.42968939    -1.13600
O37         O  0.79313645  0.28871227  0.47497803    -0.72800
C38         C  0.80598463  0.31353094  0.48284555     0.97900
C39         C  0.81790564  0.34535147  0.38645893     0.94300
Al40       Al  0.76485756  0.30662648  0.40875159     1.55600
O41         O  0.84178602  0.31664952  0.43574197    -0.77500
C42         C  0.72427606  0.26726527  0.44288697     0.98400
C43         C  0.78046941  0.35505297  0.43602080     0.93300
O44         O  0.80580764  0.36091505  0.43632673    -0.82800
O45         O  0.63904282  0.50460563  0.47371100    -0.82200
C46         C  0.71353701  0.51927385  0.39957052     0.97100
O47         O  0.72095152  0.52719161  0.42090920    -0.71400
O48         O  0.70030394  0.55686279  0.43624298    -0.74900
Al49       Al  0.69926043  0.52521481  0.44871811     1.49000
C50         C  0.68191676  0.56332825  0.43396453     0.92400
O51         O  0.62869563  0.50710808  0.40793701    -0.81200
O52         O  0.63678402  0.44750641  0.43621768    -0.74700
Al53       Al  0.63614671  0.50547926  0.44064591     1.90100
O54         O  0.63403851  0.47302239  0.39593398    -0.73800
O55         O  0.69034140  0.47011134  0.43024929    -0.73600
O56         O  0.68839842  0.50186743  0.39436471    -0.79300
O57         O  0.70296771  0.49585749  0.46248772    -0.77500
O58         O  0.66596921  0.50212140  0.43532843    -1.13600
O59         O  0.68440748  0.52778700  0.47909474    -0.72800
C60         C  0.65979501  0.51619969  0.48737811     0.97900
C61         C  0.62565884  0.48967410  0.39233164     0.94300
Al62       Al  0.66260605  0.47544098  0.41591870     1.55600
O63         O  0.65661922  0.54607671  0.43927349    -0.77500
C64         C  0.70236218  0.47662115  0.45017080     0.98400
C65         C  0.61431959  0.44485472  0.44395720     0.93300
O66         O  0.60989783  0.46504958  0.44294571    -0.82800
O67         O  0.47633541  0.31146523  0.19093494    -0.82200
C68         C  0.52937273  0.41300536  0.24324094     0.97100
O69         O  0.53624181  0.39476761  0.24237701    -0.71400
O70         O  0.49514258  0.34545499  0.25555612    -0.74900
Al71       Al  0.51936594  0.35848657  0.22863275     1.49000
C72         C  0.47129196  0.32344416  0.25550805     0.92400
O73         O  0.44301548  0.34957773  0.22082676    -0.81200
O74         O  0.49709761  0.37933804  0.16677598    -0.74700
Al75       Al  0.46097223  0.33166453  0.20614113     1.90100
O76         O  0.46709196  0.38913247  0.20108177    -0.73800
O77         O  0.54327275  0.40731982  0.19317252    -0.73600
O78         O  0.51210668  0.41280912  0.22860013    -0.79300
O79         O  0.54626830  0.37120511  0.20380576    -0.77500
O80         O  0.49483752  0.36161343  0.21106167    -1.13600
O81         O  0.50819731  0.32160398  0.21840014    -0.72800
C82         C  0.49550495  0.30849952  0.19976049     0.97900
C83         C  0.44652324  0.37289629  0.21423260     0.94300
Al84       Al  0.50402826  0.39446241  0.19828274     1.55600
O85         O  0.45787055  0.31406545  0.23627021    -0.77500
C86         C  0.55695824  0.39498989  0.19426402     0.98400
C87         C  0.47461603  0.35797573  0.15984093     0.93300
O88         O  0.45636342  0.34202295  0.17479607    -0.82800
O89         O  0.46085310  0.15097141  0.47045399    -0.82200
C90         C  0.45081914  0.21664871  0.39938949     0.97100
O91         O  0.44202369  0.21442638  0.42061102    -0.71400
O92         O  0.41064106  0.16193225  0.43217835    -0.74900
Al93       Al  0.44163469  0.19158883  0.44704199     1.49000
C94         C  0.40330572  0.13668296  0.42943241     0.92400
O95         O  0.45925130  0.14136434  0.40382686    -0.81200
O96         O  0.51949623  0.20820569  0.43594965    -0.74700
Al97       Al  0.46034124  0.14853246  0.43708250     1.90100
O98         O  0.49450653  0.18240916  0.39392649    -0.73800
O99         O  0.49830940  0.23995017  0.43235439    -0.73600
O100        O  0.46799632  0.20930526  0.39393044    -0.79300
O101        O  0.47053805  0.22336568  0.46332271    -0.77500
O102        O  0.46483756  0.18250661  0.43338672    -1.13600
O103        O  0.43641139  0.17100222  0.47619389    -0.72800
C104        C  0.44836748  0.15867729  0.48429279     0.97900
C105        C  0.47721532  0.15722731  0.38885386     0.94300
Al106      Al  0.49274651  0.20775954  0.41561047     1.55600
O107        O  0.41953162  0.12805421  0.43517745    -0.77500
C108        C  0.49051496  0.24349316  0.45243196     0.98400
C109        C  0.52139428  0.18743673  0.44167643     0.93300
O110        O  0.50055682  0.16258405  0.43946331    -0.82800
O111        O  0.78244619  0.49523655  0.19287907    -0.82200
C112        C  0.83434110  0.44429593  0.24109697     0.97100
O113        O  0.80864919  0.43625711  0.24072174    -0.71400
O114        O  0.79827749  0.47460178  0.25548397    -0.74900
Al115      Al  0.78779744  0.45148064  0.22786533     1.49000
C116        C  0.80001167  0.49802458  0.25607503     0.92400
O117        O  0.85561572  0.52941452  0.22079958    -0.81200
O118        O  0.83109246  0.47731982  0.16590117    -0.74700
Al119      Al  0.81900043  0.51088029  0.20681438     1.90100
O120        O  0.87175898  0.50771055  0.19954189    -0.73800
O121        O  0.81409325  0.43099329  0.19105840    -0.73600
O122        O  0.85131673  0.46240946  0.22654330    -0.79300
O123        O  0.77405676  0.42555647  0.20245877    -0.77500
O124        O  0.81555096  0.47751654  0.21050104    -1.13600
O125        O  0.76070380  0.46064019  0.21841349    -0.72800
C126        C  0.76005824  0.47539572  0.20169767     0.97900
C127        C  0.87575474  0.52681249  0.21398023     0.94300
Al128      Al  0.84008630  0.47032625  0.19675963     1.55600
O129        O  0.80503887  0.51236148  0.23739234    -0.77500
C130        C  0.78769001  0.41637631  0.19205455     0.98400
C131        C  0.83138096  0.49921735  0.15965437     0.93300
O132        O  0.83306598  0.51663620  0.17498739    -0.82800
O133        O  0.49724990  0.34996283  0.95624480    -0.82200
C134        C  0.44970273  0.24709822  0.90510568     0.97100
O135        O  0.47517553  0.26608968  0.90666170    -0.71400
O136        O  0.48347902  0.31457726  0.89295468    -0.74900
Al137      Al  0.49435390  0.30270299  0.92024234     1.49000
C138        C  0.48048955  0.33546311  0.89241910     0.92400
O139        O  0.42522652  0.30848884  0.92770949    -0.81200
O140        O  0.44925542  0.27998191  0.98132080    -0.74700
Al141      Al  0.46136332  0.32763485  0.94178842     1.90100
O142        O  0.40920724  0.26881612  0.94697584    -0.73800
O143        O  0.46829343  0.25363509  0.95492921    -0.73600
O144        O  0.43166553  0.24685390  0.91898798    -0.79300
O145        O  0.50820069  0.29130390  0.94577615    -0.77500
O146        O  0.46572137  0.29849565  0.93722737    -1.13600
O147        O  0.52015921  0.34008536  0.93008350    -0.72800
C148        C  0.51995508  0.35450713  0.94731594     0.97900
C149        C  0.40516398  0.28488027  0.93401004     0.94300
Al150      Al  0.44146786  0.26509763  0.94971245     1.55600
O151        O  0.47530679  0.34441246  0.91125012    -0.77500
C152        C  0.49477415  0.26702046  0.95444421     0.98400
C153        C  0.44898550  0.30141983  0.98825969     0.93300
O154        O  0.44708550  0.31741977  0.97346192    -0.82800
O155        O  0.63997104  0.50558942  0.67654882    -0.82200
C156        C  0.56080685  0.44457925  0.74838873     0.97100
O157        O  0.55492376  0.44541093  0.72672053    -0.71400
O158        O  0.57815279  0.49726633  0.71242656    -0.74900
Al159      Al  0.57864417  0.46642811  0.70001798     1.49000
C160        C  0.59700819  0.52266977  0.71435424     0.92400
O161        O  0.64901964  0.51964978  0.74244048    -0.81200
O162        O  0.63867523  0.45019416  0.71601433    -0.74700
Al163      Al  0.64192957  0.50996634  0.70966430     1.90100
O164        O  0.63978965  0.47893064  0.75543675    -0.73800
O165        O  0.58444066  0.41899779  0.71904841    -0.73600
O166        O  0.58553988  0.45307168  0.75481505    -0.79300
O167        O  0.57509128  0.43342586  0.68604370    -0.77500
O168        O  0.61101970  0.47645720  0.71462272    -1.13600
O169        O  0.59493442  0.48491510  0.67035537    -0.72800
C170        C  0.61969348  0.49708486  0.66249722     0.97900
C171        C  0.65032361  0.50475232  0.75849192     0.94300
Al172      Al  0.61210402  0.45246281  0.73459547     1.55600
O173        O  0.62240854  0.53076444  0.70985169    -0.77500
C174        C  0.57402140  0.41407494  0.69844430     0.98400
C175        C  0.66192294  0.47003547  0.70871077     0.93300
O176        O  0.66709608  0.49512303  0.70867171    -0.82800
O177        O  0.46084310  0.15232618  0.67408463    -0.82200
C178        C  0.52465448  0.13639628  0.74360996     0.97100
O179        O  0.52266081  0.12919721  0.72194314    -0.71400
O180        O  0.47047420  0.09955862  0.70721209    -0.74900
Al181      Al  0.50185568  0.13231907  0.69576386     1.49000
C182        C  0.44541502  0.09289148  0.71027887     0.92400
O183        O  0.45107747  0.14965116  0.74103645    -0.81200
O184        O  0.51973651  0.20966405  0.71283951    -0.74700
Al185      Al  0.45912812  0.15142060  0.70777288     1.90100
O186        O  0.49256570  0.18150579  0.75313304    -0.73800
O187        O  0.55047527  0.18717063  0.71452989    -0.73600
O188        O  0.51747921  0.15326125  0.75051506    -0.79300
O189        O  0.53516162  0.16249942  0.68183545    -0.77500
O190        O  0.49267839  0.15464940  0.71133190    -1.13600
O191        O  0.48339381  0.13072116  0.66673726    -0.72800
C192        C  0.46941488  0.14121580  0.65955886     0.97900
C193        C  0.46684776  0.16591177  0.75700572     0.94300
Al194      Al  0.51770970  0.18054262  0.73095822     1.55600
O195        O  0.43816542  0.11093464  0.70890423    -0.77500
C196        C  0.55485676  0.18158713  0.69384591     0.98400
C197        C  0.49982299  0.21240227  0.70584401     0.93300
O198        O  0.47466890  0.19182831  0.70615530    -0.82800
O199        O  0.61942916  0.17098610  0.94972965    -0.82200
C200        C  0.72343499  0.22055370  0.90128045     0.97100
O201        O  0.70627500  0.22886081  0.90144640    -0.71400
O202        O  0.65647756  0.18994582  0.88708678    -0.74900
Al203      Al  0.66962350  0.21376208  0.91421058     1.49000
C204        C  0.63419246  0.16633399  0.88666400     0.92400
O205        O  0.65687045  0.13595180  0.92336001    -0.81200
O206        O  0.68656500  0.18973607  0.97717283    -0.74700
Al207      Al  0.63960704  0.15501570  0.93648564     1.90100
O208        O  0.69565163  0.15852516  0.94423249    -0.73800
O209        O  0.71700754  0.23548820  0.95102905    -0.73600
O210        O  0.72184400  0.20303552  0.91638125    -0.79300
O211        O  0.68234817  0.24026358  0.93912970    -0.77500
O212        O  0.67058239  0.18827566  0.93228065    -1.13600
O213        O  0.63299049  0.20460308  0.92329152    -0.72800
C214        C  0.61740354  0.19042051  0.94037294     0.97900
C215        C  0.67942436  0.13844986  0.93074334     0.94300
Al216      Al  0.70258348  0.19597305  0.94617458     1.55600
O217        O  0.62417175  0.15257163  0.90562304    -0.77500
C218        C  0.70540880  0.24981390  0.94965804     0.98400
C219        C  0.66426592  0.16795884  0.98371413     0.93300
O220        O  0.64770855  0.15028786  0.96864490    -0.82800
O221        O  0.81767861  0.33437224  0.67216174    -0.82200
C222        C  0.83350594  0.40891459  0.74720273     0.97100
O223        O  0.84107451  0.41629325  0.72575958    -0.71400
O224        O  0.86953408  0.39494757  0.70857303    -0.74900
Al225      Al  0.83778298  0.39439253  0.69743159     1.49000
C226        C  0.87581257  0.37655009  0.71183616     0.92400
O227        O  0.81810124  0.32187613  0.73789062    -0.81200
O228        O  0.76020598  0.33285935  0.71129183    -0.74700
Al229      Al  0.81753083  0.33089510  0.70536079     1.90100
O230        O  0.78585518  0.32931386  0.75094321    -0.73800
O231        O  0.78392751  0.38679549  0.71752976    -0.73600
O232        O  0.81618495  0.38376024  0.75243473    -0.79300
O233        O  0.80841365  0.39864972  0.68467617    -0.77500
O234        O  0.81482179  0.36111845  0.71108957    -1.13600
O235        O  0.83900115  0.37956761  0.66663545    -0.72800
C236        C  0.82819386  0.35502204  0.65837770     0.97900
C237        C  0.80114392  0.31921742  0.75378025     0.94300
Al238      Al  0.78889070  0.35834783  0.73119338     1.55600
O239        O  0.85820450  0.35092670  0.70775775    -0.77500
C240        C  0.78996301  0.39871914  0.69756390     0.98400
C241        C  0.75689012  0.31053775  0.70238677     0.93300
O242        O  0.77684426  0.30564991  0.70218849    -0.82800
O243        O  0.80264942  0.47400165  0.95675947    -0.82200
C244        C  0.75164834  0.52219054  0.90366020     0.97100
O245        O  0.74379466  0.49657436  0.90506085    -0.71400
O246        O  0.78241898  0.48589763  0.89274283    -0.74900
Al247      Al  0.75880774  0.47658815  0.91981597     1.49000
C248        C  0.80618884  0.48844282  0.89267574     0.92400
O249        O  0.83609844  0.54557899  0.92631373    -0.81200
O250        O  0.78241525  0.52227660  0.98045110    -0.74700
Al251      Al  0.81780771  0.50964564  0.94146477     1.90100
O252        O  0.81375641  0.56192739  0.94634741    -0.73800
O253        O  0.73684499  0.50421142  0.95360819    -0.73600
O254        O  0.76940312  0.53998668  0.91799992    -0.79300
O255        O  0.73216701  0.46382223  0.94471451    -0.77500
O256        O  0.78426079  0.50532081  0.93665193    -1.13600
O257        O  0.76821925  0.45049412  0.93135713    -0.72800
C258        C  0.78317997  0.45106730  0.94843708     0.97900
C259        C  0.83352382  0.56585270  0.93274369     0.94300
Al260      Al  0.77636696  0.53011569  0.94874205     1.55600
O261        O  0.82033357  0.49436805  0.91159699    -0.77500
C262        C  0.72231058  0.47778228  0.95333419     0.98400
C263        C  0.80454861  0.52355469  0.98752989     0.93300
O264        O  0.82250390  0.52524972  0.97272985    -0.82800
O265        O  0.32498296  0.52408381  0.52673889    -0.82200
C266        C  0.22135105  0.46660528  0.57636789     0.97100
O267        O  0.23952368  0.49236788  0.57716759    -0.71400
O268        O  0.28933722  0.50345166  0.59007999    -0.74900
Al269      Al  0.27581236  0.51496020  0.56389703     1.49000
C270        C  0.31159849  0.50287376  0.58939565     0.92400
O271        O  0.28633509  0.44982217  0.55137213    -0.81200
O272        O  0.25710988  0.47527440  0.49905573    -0.74700
Al273      Al  0.30414647  0.48689178  0.53908781     1.90100
O274        O  0.24706407  0.43313352  0.53131894    -0.73800
O275        O  0.22781534  0.49017417  0.52689288    -0.73600
O276        O  0.22183421  0.45105676  0.56020395    -0.79300
O277        O  0.26278772  0.52970454  0.54044598    -0.77500
O278        O  0.27370526  0.48883918  0.54444740    -1.13600
O279        O  0.31249357  0.54343886  0.55446193    -0.72800
C280        C  0.32804509  0.54553576  0.53724938     0.97900
C281        C  0.26332948  0.42933052  0.54432931     0.94300
Al282      Al  0.24123006  0.46442955  0.53039633     1.55600
O283        O  0.32060727  0.49946571  0.56984281    -0.77500
C284        C  0.23962395  0.51638874  0.52984788     0.98400
C285        C  0.27903481  0.47606355  0.49194577     0.93300
O286        O  0.29526742  0.47453732  0.50671724    -0.82800
O287        O  0.13250106  0.48665272  0.80600786    -0.82200
C288        C  0.11886701  0.54672180  0.73186201     0.97100
O289        O  0.11265698  0.54730101  0.75355061    -0.71400
O290        O  0.08105029  0.49680892  0.77070014    -0.74900
Al291      Al  0.11447443  0.52742969  0.78129774     1.49000
C292        C  0.07255251  0.47109732  0.76969073     0.92400
O293        O  0.12688737  0.47092317  0.74026411    -0.81200
O294        O  0.18968166  0.54030013  0.76565570    -0.74700
Al295      Al  0.13009022  0.48168799  0.77281907     1.90100
O296        O  0.16100773  0.51046335  0.72655749    -0.73800
O297        O  0.16969938  0.57270499  0.76079115    -0.73600
O298        O  0.13468215  0.53780595  0.72595722    -0.79300
O299        O  0.14580209  0.56008387  0.79401816    -0.77500
O300        O  0.13516015  0.51553785  0.76699126    -1.13600
O301        O  0.11184869  0.51040892  0.81169485    -0.72800
C302        C  0.12233542  0.49678509  0.81986364     0.97900
C303        C  0.14402971  0.48469800  0.72406548     0.94300
Al304      Al  0.16143868  0.53823741  0.74650647     1.55600
O305        O  0.08933618  0.46237631  0.77252434    -0.77500
C306        C  0.16524098  0.57842255  0.78141947     0.98400
C307        C  0.19136088  0.52030290  0.77405202     0.93300
O308        O  0.17026696  0.49540579  0.77419490    -0.82800
O309        O  0.31168135  0.83825624  0.80770920    -0.82200
C310        C  0.39424866  0.86047870  0.73707105     0.97100
O311        O  0.39913714  0.86723455  0.75892032    -0.71400
O312        O  0.37363541  0.89390835  0.77223364    -0.74900
Al313      Al  0.37381966  0.86296055  0.78509770     1.49000
C314        C  0.35397281  0.89850282  0.76918794     0.92400
O315        O  0.30254654  0.84056598  0.74157193    -0.81200
O316        O  0.31581332  0.78468795  0.76692464    -0.74700
Al317      Al  0.31031326  0.83945606  0.77439798     1.90100
O318        O  0.31571416  0.81283480  0.72750121    -0.73800
O319        O  0.36961908  0.81023972  0.76599381    -0.73600
O320        O  0.36971831  0.84361237  0.73006841    -0.79300
O321        O  0.37746333  0.83383605  0.79927059    -0.77500
O322        O  0.34204680  0.83913758  0.76975405    -1.13600
O323        O  0.35641550  0.86409847  0.81474729    -0.72800
C324        C  0.33140212  0.85105653  0.82216737     0.97900
C325        C  0.30337855  0.82610290  0.72484236     0.94300
Al326      Al  0.34253160  0.81495026  0.74941065     1.55600
O327        O  0.32869821  0.87987375  0.77335689    -0.77500
C328        C  0.37890253  0.81564688  0.78700009     0.98400
C329        C  0.29306248  0.78004423  0.77576568     0.93300
O330        O  0.28685065  0.79896816  0.77631519    -0.82800
O331        O  0.14357469  0.64253922  0.52804500    -0.82200
C332        C  0.20056107  0.74592743  0.57841212     0.97100
O333        O  0.20435300  0.72559406  0.57967216    -0.71400
O334        O  0.16031448  0.67785044  0.59199262    -0.74900
Al335      Al  0.18624784  0.68901392  0.56644738     1.49000
C336        C  0.13629783  0.65616776  0.59108554     0.92400
O337        O  0.11287362  0.68510179  0.55315564    -0.81200
O338        O  0.16957757  0.71034132  0.50166683    -0.74700
Al339      Al  0.12961089  0.66499660  0.54089299     1.90100
O340        O  0.14112921  0.72460487  0.53443986    -0.73800
O341        O  0.21483297  0.73606502  0.52874903    -0.73600
O342        O  0.18542643  0.74702573  0.56227845    -0.79300
O343        O  0.21462543  0.69961200  0.54338354    -0.77500
O344        O  0.16421806  0.69372248  0.54678107    -1.13600
O345        O  0.17342506  0.65132984  0.55713165    -0.72800
C346        C  0.16067318  0.63775748  0.53866640     0.97900
C347        C  0.11942720  0.70958071  0.54691826     0.94300
Al348      Al  0.17654763  0.72670786  0.53275987     1.55600
O349        O  0.12367108  0.64756942  0.57144612    -0.77500
C350        C  0.22683193  0.72233992  0.53202425     0.98400
C351        C  0.14670533  0.68991007  0.49428392     0.93300
O352        O  0.12741288  0.67515094  0.50887517    -0.82800
O353        O  0.48876227  0.66780309  0.80432655    -0.82200
C354        C  0.42607412  0.59194191  0.73048773     0.97100
O355        O  0.42664579  0.58508229  0.75200566    -0.71400
O356        O  0.47733090  0.60642774  0.76960515    -0.74900
Al357      Al  0.44608464  0.60746253  0.78012731     1.49000
C358        C  0.50270169  0.62473479  0.76641874     0.92400
O359        O  0.50013539  0.67921765  0.73823912    -0.81200
O360        O  0.43125518  0.66795135  0.76637965    -0.74700
Al361      Al  0.49118872  0.67062968  0.77091495     1.90100
O362        O  0.45984230  0.67175326  0.72626474    -0.73800
O363        O  0.39939852  0.61395010  0.76011983    -0.73600
O364        O  0.43431661  0.61696497  0.72492353    -0.79300
O365        O  0.41273199  0.60374536  0.79307033    -0.77500
O366        O  0.45721559  0.64029158  0.76591177    -1.13600
O367        O  0.46261896  0.62284816  0.81061243    -0.72800
C368        C  0.47759011  0.64748704  0.81847347     0.97900
C369        C  0.48553163  0.68210785  0.72295191     0.94300
Al370      Al  0.43348396  0.64256601  0.74622907     1.55600
O371        O  0.51113611  0.65059953  0.76814705    -0.77500
C372        C  0.39374920  0.60268923  0.78032123     0.98400
C373        C  0.45118605  0.69040236  0.77492930     0.93300
O374        O  0.47631881  0.69559714  0.77443845    -0.82800
O375        O  0.45116073  0.82517168  0.52961014    -0.82200
C376        C  0.51078606  0.78254101  0.57707761     0.97100
O377        O  0.48518935  0.77433959  0.57890513    -0.71400
O378        O  0.47605908  0.81359548  0.59271706    -0.74900
Al379      Al  0.46238164  0.78748610  0.56701875     1.49000
C380        C  0.47617214  0.83622989  0.59249594     0.92400
O381        O  0.52606808  0.86450387  0.55279984    -0.81200
O382        O  0.49865738  0.80811341  0.50089662    -0.74700
Al383      Al  0.48876078  0.84386377  0.54132100     1.90100
O384        O  0.54198916  0.84205706  0.53207310    -0.73800
O385        O  0.48459286  0.76396534  0.52870412    -0.73600
O386        O  0.52562249  0.79880770  0.56058112    -0.79300
O387        O  0.44602728  0.75888273  0.54400021    -0.77500
O388        O  0.48732651  0.81167366  0.54663336    -1.13600
O389        O  0.43372533  0.79497577  0.55909535    -0.72800
C390        C  0.43036760  0.80582617  0.54061917     0.97900
C391        C  0.54607294  0.86176564  0.54593577     0.94300
Al392      Al  0.51082623  0.80396828  0.53161392     1.55600
O393        O  0.47720188  0.84781906  0.57283993    -0.77500
C394        C  0.45852095  0.74912850  0.53260675     0.98400
C395        C  0.49811057  0.82929899  0.49377837     0.93300
O396        O  0.50023696  0.84744150  0.50856958    -0.82800
O397        O  0.30053098  0.83772427  0.01078332    -0.82200
C398        C  0.22320265  0.77497009  0.08358336     0.97100
O399        O  0.21674816  0.77563851  0.06196652    -0.71400
O400        O  0.23834301  0.82719398  0.04679948    -0.74900
Al401      Al  0.23975971  0.79675032  0.03455573     1.49000
C402        C  0.25672561  0.85262676  0.04958503     0.92400
O403        O  0.31045550  0.85130661  0.07693874    -0.81200
O404        O  0.30079780  0.78242356  0.04974981    -0.74700
Al405      Al  0.30277161  0.84166347  0.04404476     1.90100
O406        O  0.30268921  0.81097226  0.08938766    -0.73800
O407        O  0.24684201  0.75030112  0.05393133    -0.73600
O408        O  0.24827343  0.78454006  0.08960054    -0.79300
O409        O  0.23685931  0.76401058  0.02087519    -0.77500
O410        O  0.27248201  0.80775191  0.04900055    -1.13600
O411        O  0.25553835  0.81496137  0.00409343    -0.72800
C412        C  0.28045840  0.82809043  0.99637712     0.97900
C413        C  0.31271184  0.83666885  0.09270516     0.94300
Al414      Al  0.27455921  0.78422193  0.06889630     1.55600
O415        O  0.28232138  0.86145485  0.04520658    -0.77500
C416        C  0.23600904  0.74494192  0.03348801     0.98400
C417        C  0.32372640  0.80256551  0.04227421     0.93300
O418        O  0.32845250  0.82751120  0.04227113    -0.82800
O419        O  0.47513595  0.81223354  0.28531756    -0.82200
C420        C  0.41741368  0.85634699  0.23670290     0.97100
O421        O  0.41378930  0.83218055  0.23491644    -0.71400
O422        O  0.45910231  0.83252380  0.22215260    -0.74900
Al423      Al  0.43284440  0.81485204  0.24725281     1.49000
C424        C  0.48371431  0.83717530  0.22287883     0.92400
O425        O  0.50442857  0.88711386  0.26369909    -0.81200
O426        O  0.44631715  0.85044079  0.31351051    -0.74700
Al427      Al  0.48840864  0.84930789  0.27415398     1.90100
O428        O  0.47497766  0.89534511  0.28280563    -0.73800
O429        O  0.40240207  0.82955640  0.28507749    -0.73600
O430        O  0.43221313  0.87269733  0.25323193    -0.79300
O431        O  0.40452146  0.79446992  0.26991366    -0.77500
O432        O  0.45379120  0.84163901  0.26796524    -1.13600
O433        O  0.44671311  0.79094658  0.25525815    -0.72800
C434        C  0.45888219  0.79017059  0.27391726     0.97900
C435        C  0.49703169  0.90393349  0.27061549     0.94300
Al436      Al  0.44023157  0.86054131  0.28257873     1.55600
O437        O  0.49590197  0.84063589  0.24269415    -0.77500
C438        C  0.39147005  0.80359386  0.28139976     0.98400
C439        C  0.46891275  0.85330783  0.32116701     0.93300
O440        O  0.48876776  0.85898413  0.30699221    -0.82800
O441        O  0.16786811  0.67192677  0.28692109    -0.82200
C442        C  0.10372066  0.56697136  0.24032240     0.97100
O443        O  0.12940503  0.58469807  0.23796752    -0.71400
O444        O  0.14109388  0.63455433  0.22438494    -0.74900
Al445      Al  0.15368677  0.62128196  0.24988745     1.49000
C446        C  0.14212543  0.65766699  0.22507927     0.92400
O447        O  0.09193752  0.63581344  0.26571867    -0.81200
O448        O  0.11823137  0.60647756  0.31676060    -0.74700
Al449      Al  0.12982131  0.65262564  0.27618406     1.90100
O450        O  0.07525559  0.59645512  0.28574595    -0.73800
O451        O  0.13095898  0.57587572  0.28978503    -0.73600
O452        O  0.08988568  0.56844697  0.25745336    -0.79300
O453        O  0.16927663  0.60878927  0.27265788    -0.77500
O454        O  0.12963611  0.62103360  0.27073182    -1.13600
O455        O  0.18361093  0.65772452  0.25754860    -0.72800
C456        C  0.18798977  0.67305370  0.27553517     0.97900
C457        C  0.07138935  0.61289868  0.27304502     0.94300
Al458      Al  0.10556567  0.58950952  0.28620342     1.55600
O459        O  0.14090316  0.66783847  0.24482642    -0.77500
C460        C  0.15699352  0.58774581  0.28601139     0.98400
C461        C  0.12053848  0.62908103  0.32369885     0.93300
O462        O  0.11954582  0.64561661  0.30902095    -0.82800
O463        O  0.12569088  0.48510791  0.00943850    -0.82200
C464        C  0.18824607  0.47364695  0.08339596     0.97100
O465        O  0.18804240  0.46730311  0.06168610    -0.71400
O466        O  0.13686663  0.43413894  0.04486771    -0.74900
Al467      Al  0.16721532  0.46829428  0.03444440     1.49000
C468        C  0.11107022  0.42552152  0.04562639     0.92400
O469        O  0.10793068  0.47825671  0.07473937    -0.81200
O470        O  0.17658204  0.54222855  0.05261705    -0.74700
Al471      Al  0.12001889  0.48223262  0.04253102     1.90100
O472        O  0.14698599  0.51049789  0.09071827    -0.73800
O473        O  0.21058339  0.52419173  0.05569267    -0.73600
O474        O  0.17685628  0.48697226  0.09004416    -0.79300
O475        O  0.19979987  0.50064886  0.02217643    -0.77500
O476        O  0.15410834  0.48798287  0.04903015    -1.13600
O477        O  0.15000701  0.46506430  0.00402218    -0.72800
C478        C  0.13606383  0.47509749  0.99570042     0.97900
C479        C  0.12105891  0.49376766  0.09202230     0.94300
Al480      Al  0.17570776  0.51369223  0.07040261     1.55600
O481        O  0.10203665  0.44197397  0.04254947    -0.77500
C482        C  0.21739922  0.52022742  0.03530163     0.98400
C483        C  0.15691487  0.54344656  0.04293813     0.93300
O484        O  0.13249379  0.52193209  0.04135817    -0.82800
O485        O  0.47759820  0.67112860  0.00786433    -0.82200
C486        C  0.50481576  0.75362940  0.07961474     0.97100
O487        O  0.50993292  0.75836808  0.05751898    -0.71400
O488        O  0.53624052  0.73353999  0.04067932    -0.74900
Al489      Al  0.50391974  0.73310249  0.03089994     1.49000
C490        C  0.54130301  0.71400265  0.04190415     0.92400
O491        O  0.48476611  0.66182429  0.07351614    -0.81200
O492        O  0.42684459  0.67457457  0.05271410    -0.74700
Al493      Al  0.48130350  0.66964493  0.04112827     1.90100
O494        O  0.45798394  0.67486909  0.08992009    -0.73800
O495        O  0.45264332  0.72866877  0.05362767    -0.73600
O496        O  0.48865568  0.72909521  0.08703800    -0.79300
O497        O  0.47362353  0.73614898  0.01903388    -0.77500
O498        O  0.48134196  0.70128781  0.04690058    -1.13600
O499        O  0.50329125  0.71589818  0.00092652    -0.72800
C500        C  0.48985226  0.69100232  0.99339907     0.97900
C501        C  0.47112528  0.66226153  0.09111382     0.94300
Al502      Al  0.45857365  0.70167686  0.06888190     1.55600
O503        O  0.52188613  0.68848704  0.03998445    -0.77500
C504        C  0.45632327  0.73753775  0.03252409     0.98400
C505        C  0.42139768  0.65149740  0.04389388     0.93300
O506        O  0.44051352  0.64569965  0.04139066    -0.82800
O507        O  0.29268222  0.50668756  0.28681568    -0.82200
C508        C  0.39636409  0.55888108  0.23753431     0.97100
O509        O  0.37863513  0.56650670  0.23806187    -0.71400
O510        O  0.32856608  0.52836196  0.22423910    -0.74900
Al511      Al  0.34235196  0.55137980  0.25166745     1.49000
C512        C  0.30659451  0.50457326  0.22342557     0.92400
O513        O  0.33151875  0.47390617  0.25882665    -0.81200
O514        O  0.35982644  0.52701880  0.31365644    -0.74700
Al515      Al  0.31351081  0.49193604  0.27272152     1.90100
O516        O  0.36978573  0.49618465  0.28033727    -0.73800
O517        O  0.39078953  0.57335052  0.28740969    -0.73600
O518        O  0.39543203  0.54139084  0.25242943    -0.79300
O519        O  0.35556486  0.57761058  0.27675626    -0.77500
O520        O  0.34400466  0.52569372  0.26884617    -1.13600
O521        O  0.30606137  0.54186853  0.26205365    -0.72800
C522        C  0.29053438  0.52659615  0.27875733     0.97900
C523        C  0.35393281  0.47626766  0.26649874     0.94300
Al524      Al  0.37622252  0.53369146  0.28250597     1.55600
O525        O  0.29745455  0.48979269  0.24200508    -0.77500
C526        C  0.37928897  0.58776041  0.28610637     0.98400
C527        C  0.33776538  0.50477539  0.32010991     0.93300
O528        O  0.32214230  0.48679133  0.30474924    -0.82800
O529        O  0.97225107  0.17460238  0.34483246    -0.82200
C530        C  0.89825172  0.11148425  0.41886868     0.97100
O531        O  0.89069079  0.11186570  0.39759456    -0.71400
O532        O  0.91049515  0.16324970  0.38269409    -0.74900
Al533      Al  0.91229632  0.13319498  0.36983088     1.49000
C534        C  0.92849671  0.18899790  0.38370286     0.92400
O535        O  0.98258226  0.18919661  0.41032875    -0.81200
O536        O  0.97580231  0.12161787  0.38183300    -0.74700
Al537      Al  0.97514246  0.17934357  0.37765129     1.90100
O538        O  0.97809590  0.14992791  0.42241577    -0.73800
O539        O  0.92249566  0.08775700  0.38727159    -0.73600
O540        O  0.92355167  0.12071978  0.42390019    -0.79300
O541        O  0.90951204  0.10079774  0.35551571    -0.77500
O542        O  0.94572413  0.14499007  0.38311802    -1.13600
O543        O  0.92691655  0.15174930  0.33941686    -0.72800
C544        C  0.95159025  0.16503870  0.33112680     0.97900
C545        C  0.98647737  0.17538360  0.42582234     0.94300
Al546      Al  0.94972948  0.12204561  0.40221343     1.55600
O547        O  0.95383925  0.19807171  0.37831980    -0.77500
C548        C  0.91043375  0.08211859  0.36731580     0.98400
C549        C  0.99809898  0.14242299  0.37424529     0.93300
O550        O  0.00220981  0.16704334  0.37566226    -0.82800
O551        O  0.12708344  0.13780645  0.62042652    -0.82200
C552        C  0.08471193  0.19805321  0.57216081     0.97100
O553        O  0.07648336  0.17239935  0.57097766    -0.71400
O554        O  0.11475398  0.16120531  0.55702002    -0.74900
Al555      Al  0.08938608  0.14951570  0.58337598     1.49000
C556        C  0.13732430  0.16110442  0.55743489     0.92400
O557        O  0.16822862  0.21261721  0.59556852    -0.81200
O558        O  0.11386065  0.18977982  0.64813688    -0.74700
Al559      Al  0.14643886  0.17544602  0.60789754     1.90100
O560        O  0.14671839  0.23052643  0.61489691    -0.73800
O561        O  0.06890015  0.17469792  0.62229433    -0.73600
O562        O  0.10202761  0.21352733  0.58784606    -0.79300
O563        O  0.06200046  0.13522888  0.60730943    -0.77500
O564        O  0.11473158  0.17507361  0.60280238    -1.13600
O565        O  0.09572591  0.12017877  0.59187558    -0.72800
C566        C  0.10740160  0.11682584  0.60974554     0.97900
C567        C  0.16679530  0.23354714  0.60209165     0.94300
Al568      Al  0.10852965  0.20009751  0.61715611     1.55600
O569        O  0.14908943  0.16261410  0.57701982    -0.77500
C570        C  0.05395365  0.14839262  0.61996826     0.98400
C571        C  0.13445658  0.18814404  0.65501247     0.93300
O572        O  0.15134343  0.18811803  0.64007129    -0.82800
O573        O  0.14376368  0.00155396  0.34139535    -0.82200
C574        C  0.16471474  0.08025633  0.41417220     0.97100
O575        O  0.17243272  0.08637020  0.39260353    -0.71400
O576        O  0.20040783  0.06362762  0.37594514    -0.74900
Al577      Al  0.16836671  0.06306847  0.36511987     1.49000
C578        C  0.20614309  0.04458769  0.37664227     0.92400
O579        O  0.14958954  0.99336110  0.40754846    -0.81200
O580        O  0.09000223  0.00255531  0.38007490    -0.74700
Al581      Al  0.14669872  0.99983760  0.37466302     1.90100
O582        O  0.11705515  0.00088797  0.42018851    -0.73800
O583        O  0.11453189  0.05672160  0.38454369    -0.73600
O584        O  0.14687827  0.05550554  0.42020720    -0.79300
O585        O  0.13925020  0.06703063  0.35189328    -0.77500
O586        O  0.14502777  0.03063955  0.37970924    -1.13600
O587        O  0.16872117  0.04670037  0.33501181    -0.72800
C588        C  0.15525470  0.02186782  0.32720171     0.97900
C589        C  0.13275134  0.99124596  0.42347505     0.94300
Al590      Al  0.11934549  0.02897406  0.39950723     1.55600
O591        O  0.18719122  0.01912437  0.37406611    -0.77500
C592        C  0.12082410  0.06770612  0.36422610     0.98400
C593        C  0.08643487  0.97937572  0.37325154     0.93300
O594        O  0.10626969  0.97448942  0.37420232    -0.82800
O595        O  0.83332458  0.01181281  0.62598849    -0.82200
C596        C  0.77801414  0.90898951  0.57518814     0.97100
O597        O  0.80374618  0.92750533  0.57481300    -0.71400
O598        O  0.81540018  0.97753904  0.56212116    -0.74900
Al599      Al  0.82607748  0.96367140  0.58852194     1.49000
C600        C  0.81470974  0.99974012  0.56261600     0.92400
O601        O  0.76049025  0.97411235  0.59921386    -0.81200
O602        O  0.78523979  0.94446786  0.65206560    -0.74700
Al603      Al  0.79703356  0.99157132  0.61237167     1.90100
O604        O  0.74387204  0.93493181  0.61940932    -0.73800
O605        O  0.80000920  0.91488826  0.62439806    -0.73600
O606        O  0.76181857  0.90964238  0.59060921    -0.79300
O607        O  0.84010370  0.95019548  0.61234322    -0.77500
O608        O  0.79931210  0.96126803  0.60711585    -1.13600
O609        O  0.85413986  0.00018259  0.59894461    -0.72800
C610        C  0.85525711  0.01493532  0.61652024     0.97900
C611        C  0.73997326  0.95142034  0.60677282     0.94300
Al612      Al  0.77469971  0.92871853  0.62066815     1.55600
O613        O  0.81099514  0.00877884  0.58202821    -0.77500
C614        C  0.82626305  0.92655286  0.62208833     0.98400
C615        C  0.78505514  0.96596597  0.65904959     0.93300
O616        O  0.78313751  0.98182430  0.64413356    -0.82800
O617        O  0.79074604  0.82098214  0.34373254    -0.82200
C618        C  0.84904115  0.80387135  0.41776852     0.97100
O619        O  0.84969538  0.79807055  0.39594631    -0.71400
O620        O  0.79959731  0.76825635  0.37718849    -0.74900
Al621      Al  0.83117609  0.80192841  0.36801042     1.49000
C622        C  0.77404186  0.76031674  0.37870231     0.92400
O623        O  0.77512554  0.81473763  0.40971547    -0.81200
O624        O  0.84545192  0.87679194  0.38528765    -0.74700
Al625      Al  0.78600010  0.81841527  0.37704136     1.90100
O626        O  0.81498713  0.84780945  0.42371014    -0.73800
O627        O  0.87716724  0.85562987  0.39024013    -0.73600
O628        O  0.84075590  0.82014438  0.42390697    -0.79300
O629        O  0.86480815  0.83343137  0.35629802    -0.77500
O630        O  0.81957593  0.82252227  0.38283101    -1.13600
O631        O  0.81558109  0.80150998  0.33769751    -0.72800
C632        C  0.80178617  0.81185950  0.32974192     0.97900
C633        C  0.78935467  0.83060196  0.42647300     0.94300
Al634      Al  0.84241829  0.84788001  0.40389235     1.55600
O635        O  0.76587721  0.77766284  0.37696600    -0.77500
C636        C  0.88338537  0.85148666  0.36971487     0.98400
C637        C  0.82628266  0.87947871  0.37628853     0.93300
O638        O  0.80097745  0.85903398  0.37590855    -0.82800
O639        O  0.94949653  0.82735050  0.61984762    -0.82200
C640        C  0.05179147  0.88535225  0.56861154     0.97100
O641        O  0.03114192  0.88864008  0.56723653    -0.71400
O642        O  0.98329125  0.84464396  0.55547628    -0.74900
Al643      Al  0.99492364  0.87073230  0.58103947     1.49000
C644        C  0.96167068  0.82063880  0.55658759     0.92400
O645        O  0.99338992  0.79845032  0.59364139    -0.81200
O646        O  0.01699891  0.85485777  0.64582683    -0.74700
Al647      Al  0.97235838  0.81416220  0.60648867     1.90100
O648        O  0.03203673  0.82696942  0.61328665    -0.73800
O649        O  0.04250164  0.90038538  0.61842965    -0.73600
O650        O  0.05363389  0.87105418  0.58513488    -0.79300
O651        O  0.00584169  0.89963577  0.60379289    -0.77500
O652        O  0.00038818  0.84912307  0.60063198    -1.13600
O653        O  0.95747860  0.85761496  0.59124043    -0.72800
C654        C  0.94433272  0.84447364  0.60973544     0.97900
C655        C  0.01790656  0.80546020  0.60032376     0.94300
Al656      Al  0.03346938  0.86209292  0.61467956     1.55600
O657        O  0.95403201  0.80783063  0.57620401    -0.77500
C658        C  0.02872633  0.91227381  0.61488655     0.98400
C659        C  0.99731710  0.83143846  0.65318474     0.93300
O660        O  0.98308804  0.81203412  0.63846876    -0.82800
O661        O  0.98382288  0.85585208  0.85688069    -0.82200
C662        C  0.88120503  0.80286401  0.90832939     0.97100
O663        O  0.90118623  0.82787331  0.90955732    -0.71400
O664        O  0.95100297  0.83730844  0.92184301    -0.74900
Al665      Al  0.93724795  0.84904012  0.89581533     1.49000
C666        C  0.97378033  0.83772122  0.92055896     0.92400
O667        O  0.94585180  0.78292530  0.88416524    -0.81200
O668        O  0.91658101  0.80745881  0.83129323    -0.74700
Al669      Al  0.96371316  0.81944753  0.87075535     1.90100
O670        O  0.90559360  0.76636930  0.86533399    -0.73800
O671        O  0.88935566  0.82550821  0.85789207    -0.73600
O672        O  0.88074220  0.78650351  0.89248893    -0.79300
O673        O  0.92445188  0.86415165  0.87268881    -0.77500
O674        O  0.93374306  0.82221803  0.87651345    -1.13600
O675        O  0.97388185  0.87648990  0.88542194    -0.72800
C676        C  0.98754923  0.87776828  0.86700954     0.97900
C677        C  0.92243605  0.76250769  0.87758519     0.94300
Al678      Al  0.90087624  0.79836509  0.86277943     1.55600
O679        O  0.98203168  0.83385786  0.90078931    -0.77500
C680        C  0.90194667  0.85176719  0.86106516     0.98400
C681        C  0.93775793  0.80684333  0.82428180     0.93300
O682        O  0.95372942  0.80512527  0.83909145    -0.82800
O683        O  0.15030227  0.00215396  0.13781117    -0.82200
C684        C  0.09177160  0.92911983  0.06107411     0.97100
O685        O  0.09054935  0.92127652  0.08264696    -0.71400
O686        O  0.13974807  0.93993428  0.10314853    -0.74900
Al687      Al  0.10883326  0.94253259  0.11198431     1.49000
C688        C  0.16562287  0.95750659  0.10258305     0.92400
O689        O  0.16785410  0.01281828  0.07246771    -0.81200
O690        O  0.09845893  0.00551765  0.09761037    -0.74700
Al691      Al  0.15631136  0.00514397  0.10485555     1.90100
O692        O  0.12962013  0.00938524  0.05903596    -0.73800
O693        O  0.06500104  0.95175926  0.08961728    -0.73600
O694        O  0.10163270  0.95462543  0.05614334    -0.79300
O695        O  0.07559178  0.94039757  0.12336904    -0.77500
O696        O  0.12223295  0.97591046  0.09822981    -1.13600
O697        O  0.12387471  0.95697482  0.14330029    -0.72800
C698        C  0.13799290  0.98157628  0.15160178     0.97900
C699        C  0.15492945  0.01703534  0.05636663     0.94300
Al700      Al  0.10069201  0.98012765  0.07747297     1.55600
O701        O  0.17480098  0.98347547  0.10504777    -0.77500
C702        C  0.05766611  0.93982275  0.10954668     0.98400
C703        C  0.11859010  0.02768977  0.10633435     0.93300
O704        O  0.14345835  0.03213156  0.10610959    -0.82800
O705        O  0.11356788  0.15881793  0.86303363    -0.82200
C706        C  0.16628250  0.10706991  0.90800091     0.97100
O707        O  0.14057650  0.09898160  0.90856691    -0.71400
O708        O  0.13225754  0.13836011  0.92451905    -0.74900
Al709      Al  0.11974395  0.11499784  0.89705480     1.49000
C710        C  0.13458263  0.16204598  0.92563406     0.92400
O711        O  0.18818767  0.19228184  0.88739910    -0.81200
O712        O  0.15961656  0.13910199  0.83324548    -0.74700
Al713      Al  0.15072104  0.17401036  0.87529387     1.90100
O714        O  0.20204404  0.16916641  0.86532499    -0.73800
O715        O  0.14267720  0.09295436  0.85850034    -0.73600
O716        O  0.18237854  0.12447792  0.89262737    -0.79300
O717        O  0.10400376  0.08910390  0.87190543    -0.77500
O718        O  0.14673218  0.14040322  0.87866956    -1.13600
O719        O  0.09284605  0.12496403  0.88931007    -0.72800
C720        C  0.09156396  0.13933159  0.87257919     0.97900
C721        C  0.20757489  0.18923607  0.87921299     0.94300
Al722      Al  0.16980919  0.13218849  0.86357325     1.55600
O723        O  0.13892152  0.17633301  0.90693543    -0.77500
C724        C  0.11630745  0.07924780  0.86039717     0.98400
C725        C  0.16034683  0.16124978  0.82713851     0.93300
O726        O  0.16264995  0.17885228  0.84261994    -0.82800
O727        O  0.80910976  0.97908918  0.86440660    -0.82200
C728        C  0.85989892  0.08279363  0.91362524     0.97100
O729        O  0.86769271  0.06523310  0.91345588    -0.71400
O730        O  0.82792434  0.01595216  0.92719480    -0.74900
Al731      Al  0.85208066  0.02866233  0.90044332     1.49000
C732        C  0.80422670  0.99383328  0.92753064     0.92400
O733        O  0.77530562  0.01823485  0.89002207    -0.81200
O734        O  0.83044800  0.04656020  0.83706040    -0.74700
Al735      Al  0.79378172  0.00004848  0.87745006     1.90100
O736        O  0.79918437  0.05690366  0.86917410    -0.73800
O737        O  0.87598097  0.07653120  0.86389181    -0.73600
O738        O  0.84328523  0.08216833  0.89798451    -0.79300
O739        O  0.87892674  0.04090345  0.87596892    -0.77500
O740        O  0.82740745  0.03052485  0.88203876    -1.13600
O741        O  0.84216267  0.99182640  0.89121291    -0.72800
C742        C  0.82841786  0.97680017  0.87368477     0.97900
C743        C  0.77845150  0.04094076  0.88220324     0.94300
Al744      Al  0.83637188  0.06285901  0.86804571     1.55600
O745        O  0.79036512  0.98419208  0.90851832    -0.77500
C746        C  0.88954709  0.06415155  0.86559016     0.98400
C747        C  0.80859102  0.02439509  0.83028731     0.93300
O748        O  0.79006298  0.00857142  0.84514235    -0.82800
O749        O  0.97405419  0.17106193  0.14294628    -0.82200
C750        C  0.05188928  0.18801709  0.07020456     0.97100
O751        O  0.05813758  0.19583774  0.09171870    -0.71400
O752        O  0.03494372  0.22423390  0.10491049    -0.74900
Al753      Al  0.03478128  0.19384136  0.11854607     1.49000
C754        C  0.01591684  0.22977051  0.10243586     0.92400
O755        O  0.96295671  0.17224576  0.07737465    -0.81200
O756        O  0.97461076  0.11516189  0.10425202    -0.74700
Al757      Al  0.97126072  0.17150108  0.10988875     1.90100
O758        O  0.97224781  0.14122733  0.06412025    -0.73800
O759        O  0.02852770  0.13991350  0.10087411    -0.73600
O760        O  0.02685268  0.17154239  0.06416018    -0.79300
O761        O  0.03844035  0.16519389  0.13340558    -0.77500
O762        O  0.00204544  0.16981996  0.10466085    -1.13600
O763        O  0.01916648  0.19725989  0.14830394    -0.72800
C764        C  0.99452339  0.18465539  0.15654731     0.97900
C765        C  0.96119179  0.15574107  0.06139256     0.94300
Al766      Al  0.00057939  0.14415251  0.08504020     1.55600
O767        O  0.99073402  0.21218037  0.10806691    -0.77500
C768        C  0.03950578  0.14670444  0.12129601     0.98400
C769        C  0.95192051  0.11129139  0.11260136     0.93300
O770        O  0.94648793  0.13083116  0.11250550    -0.82800
O771        O  0.79467891  0.81760447  0.14002509    -0.82200
C772        C  0.78514653  0.88357889  0.06920109     0.97100
O773        O  0.77699005  0.88177478  0.09054468    -0.71400
O774        O  0.74444869  0.82932511  0.10137615    -0.74900
Al775      Al  0.77585125  0.85835674  0.11650688     1.49000
C776        C  0.73649014  0.80385196  0.09913765     0.92400
O777        O  0.79037886  0.80593976  0.07368168    -0.81200
O778        O  0.85277374  0.87240568  0.10421181    -0.74700
Al779      Al  0.79277743  0.81400161  0.10676154     1.90100
O780        O  0.82584309  0.84636632  0.06260593    -0.73800
O781        O  0.83317674  0.90531914  0.10150986    -0.73600
O782        O  0.80127064  0.87510681  0.06325019    -0.79300
O783        O  0.80559149  0.88969850  0.13274250    -0.77500
O784        O  0.79820005  0.84827887  0.10269192    -1.13600
O785        O  0.76994354  0.83737565  0.14546234    -0.72800
C786        C  0.78249559  0.82574563  0.15374401     0.97900
C787        C  0.80790763  0.82114212  0.05816585     0.94300
Al788      Al  0.82598333  0.87269760  0.08444896     1.55600
O789        O  0.75198228  0.79464893  0.10575602    -0.77500
C790        C  0.82616107  0.90927941  0.12182428     0.98400
C791        C  0.85396891  0.85131951  0.11011154     0.93300
O792        O  0.83267220  0.82674243  0.10825825    -0.82800
C793        C  0.83716493  0.00174944  0.12494508    -0.18300
C794        C  0.85521104  0.03077656  0.12285489    -0.20400
C795        C  0.88425772  0.04286413  0.12529718     0.20200
C796        C  0.89506827  0.02554604  0.13089949    -0.03400
C797        C  0.87688967  0.99629437  0.13303376    -0.06400
C798        C  0.84783703  0.98428529  0.12954869     0.20500
C799        C  0.88800440  0.97893089  0.13709570     0.18700
C800        C  0.91693336  0.99098923  0.14019299    -0.17900
C801        C  0.93489060  0.01994161  0.13825094    -0.20100
C802        C  0.92419191  0.03723573  0.13306608     0.20100
C803        C  0.94226480  0.06577837  0.12872837    -0.33100
C804        C  0.93185301  0.08292745  0.12174421     0.00800
C805        C  0.90277286  0.07161690  0.12095284    -0.24500
C806        C  0.83032599  0.95498983  0.12901727    -0.29000
C807        C  0.84170714  0.93779971  0.13139309     0.06500
C808        C  0.87029420  0.94976938  0.13623309    -0.27700
H809        H  0.81492367  0.99286720  0.12220542     0.11200
H810        H  0.84650159  0.04368169  0.11860485     0.12400
H811        H  0.92575086  0.97795994  0.14335941     0.11400
H812        H  0.95725143  0.02871248  0.14001807     0.10700
H813        H  0.96467972  0.07442922  0.12968431     0.16100
H814        H  0.89464947  0.08470917  0.11552513     0.12000
H815        H  0.80835711  0.94562497  0.12455389     0.14800
H816        H  0.87903458  0.93640053  0.13744661     0.14600
C817        C  0.80507271  0.97234150  0.03536553    -0.18300
C818        C  0.80877484  0.98831526  0.01498507    -0.20400
C819        C  0.79817838  0.97520526  0.99290680     0.20200
C820        C  0.78281299  0.94566791  0.99149651    -0.03400
C821        C  0.77953479  0.92956984  0.01194252    -0.06400
C822        C  0.79102489  0.94302568  0.03391604     0.20500
C823        C  0.76619585  0.90013594  0.01007678     0.18700
C824        C  0.75479690  0.88697103  0.98819188    -0.17900
C825        C  0.75748964  0.90289543  0.96805006    -0.20100
C826        C  0.77198767  0.93223868  0.96940783     0.20100
C827        C  0.77715403  0.94839456  0.94883262    -0.33100
C828        C  0.79394265  0.97775027  0.94987190     0.00800
C829        C  0.80383111  0.99106828  0.97203091    -0.24500
C830        C  0.78983549  0.92705660  0.05363333    -0.29000
C831        C  0.77840849  0.89811453  0.05126232     0.06500
C832        C  0.76601993  0.88460699  0.02973857    -0.27700
H833        H  0.81402726  0.98295708  0.05208925     0.11200
H834        H  0.82049269  0.01095756  0.01638521     0.12400
H835        H  0.74440490  0.86441244  0.98652023     0.11400
H836        H  0.74905979  0.89229325  0.95120582     0.10700
H837        H  0.76976640  0.93803102  0.93173235     0.16100
H838        H  0.81675506  0.01372344  0.97287574     0.12000
H839        H  0.79994518  0.93738422  0.07019684     0.14800
H840        H  0.75758869  0.86226974  0.02801022     0.14600
C841        C  0.94357109  0.15489487  0.95301169    -0.18300
C842        C  0.95851396  0.16417262  0.97439026    -0.20400
C843        C  0.94450997  0.15557029  0.99633312     0.20200
C844        C  0.91497596  0.13877321  0.99677142    -0.03400
C845        C  0.89990023  0.12923669  0.97517650    -0.06400
C846        C  0.91440510  0.13675516  0.95323908     0.20500
C847        C  0.87061704  0.11049676  0.97560748     0.18700
C848        C  0.85649689  0.10291731  0.99756525    -0.17900
C849        C  0.87138473  0.11272581  0.01896340    -0.20100
C850        C  0.90067113  0.13001495  0.01877239     0.20100
C851        C  0.91603968  0.13737765  0.04009708    -0.33100
C852        C  0.94541275  0.15255267  0.03954115     0.00800
C853        C  0.95956305  0.16215604  0.01776860    -0.24500
C854        C  0.89986843  0.12412824  0.93212242    -0.29000
C855        C  0.87120652  0.10380517  0.93271010     0.06500
C856        C  0.85640234  0.09794102  0.95427436    -0.27700
H857        H  0.95497699  0.16093368  0.93630309     0.11200
H858        H  0.98113385  0.17726797  0.97375956     0.12400
H859        H  0.83404568  0.08863553  0.99822535     0.11400
H860        H  0.86008847  0.10589045  0.03568755     0.10700
H861        H  0.90528210  0.12989071  0.05701988     0.16100
H862        H  0.98227532  0.17388554  0.01751992     0.12000
H863        H  0.91134225  0.12799256  0.91553989     0.14800
H864        H  0.83445302  0.08164150  0.95477080     0.14600
C865        C  0.11367702  0.16081665  0.03429519    -0.18300
C866        C  0.12424648  0.15577848  0.01346403    -0.20400
C867        C  0.12315176  0.16754323  0.99168994     0.20200
C868        C  0.11216299  0.18535852  0.99108341    -0.03400
C869        C  0.10109235  0.19009186  0.01201757    -0.06400
C870        C  0.10156419  0.17747197  0.03365838     0.20500
C871        C  0.08811227  0.20611493  0.01097654     0.18700
C872        C  0.08777246  0.21856811  0.98938127    -0.17900
C873        C  0.09929768  0.21439600  0.96877543    -0.20100
C874        C  0.11098181  0.19736554  0.96933792     0.20100
C875        C  0.12026787  0.19108996  0.94832914    -0.33100
C876        C  0.12980573  0.17216415  0.94853562     0.00800
C877        C  0.13171731  0.16088924  0.97037038    -0.24500
C878        C  0.08826053  0.18019019  0.05384628    -0.29000
C879        C  0.07358286  0.19435346  0.05234696     0.06500
C880        C  0.07414457  0.20787191  0.03112169    -0.27700
H881        H  0.11416221  0.15094770  0.05075980     0.11200
H882        H  0.13273139  0.14217095  0.01429007     0.12400
H883        H  0.07799611  0.23099115  0.98829902     0.11400
H884        H  0.09825568  0.22377674  0.95220024     0.10700
H885        H  0.11846778  0.19966720  0.93154850     0.16100
H886        H  0.13911128  0.14633405  0.97065871     0.12000
H887        H  0.08703815  0.16906554  0.07007530     0.14800
H888        H  0.06225928  0.21823650  0.02991796     0.14600
C889        C  0.98513409  0.14675604  0.86372635    -0.18300
C890        C  0.01404709  0.15754726  0.86507349    -0.20400
C891        C  0.02486726  0.13993801  0.86200252     0.20200
C892        C  0.00634506  0.11132446  0.85662248    -0.03400
C893        C  0.97722984  0.10048308  0.85514842    -0.06400
C894        C  0.96649155  0.11815939  0.85921273     0.20500
C895        C  0.95878245  0.07163445  0.85089025     0.18700
C896        C  0.96955006  0.05412143  0.84713472    -0.17900
C897        C  0.99829542  0.06479216  0.84873948    -0.20100
C898        C  0.01673591  0.09318075  0.85394949     0.20100
C899        C  0.04517421  0.10339860  0.85771432    -0.33100
C900        C  0.06352910  0.13148814  0.86401021     0.00800
C901        C  0.05357503  0.14998879  0.86540576    -0.24500
C902        C  0.93731660  0.10657755  0.86018071    -0.29000
C903        C  0.91896361  0.07750871  0.85764148     0.06500
C904        C  0.92984889  0.06044292  0.85195221    -0.27700
H905        H  0.97729325  0.16064518  0.86687942     0.11200
H906        H  0.02788326  0.17954305  0.86918749     0.12400
H907        H  0.95568112  0.03199935  0.84366572     0.11400
H908        H  0.00604843  0.05068837  0.84651609     0.10700
H909        H  0.05295183  0.08916798  0.85679361     0.16100
H910        H  0.06773283  0.17158752  0.87061807     0.12000
H911        H  0.92902346  0.11976634  0.86482820     0.14800
H912        H  0.91577398  0.03807205  0.84984551     0.14600
C913        C  0.93632179  0.84596283  0.09068863    -0.18300
C914        C  0.96551872  0.85961151  0.08981385    -0.20400
C915        C  0.98204793  0.88333597  0.10396884     0.20200
C916        C  0.96915066  0.89283738  0.11989463    -0.03400
C917        C  0.93964771  0.87921023  0.12060369    -0.06400
C918        C  0.92317689  0.85593240  0.10561178     0.20500
C919        C  0.92673501  0.88993424  0.13517538     0.18700
C920        C  0.94329558  0.91313115  0.14992553    -0.17900
C921        C  0.97254279  0.92638194  0.14949558    -0.20100
C922        C  0.98573117  0.91683534  0.13413260     0.20100
C923        C  0.01509363  0.93154863  0.13185150    -0.33100
C924        C  0.02770838  0.92275914  0.11513402     0.00800
C925        C  0.01120603  0.89846142  0.10166021    -0.24500
C926        C  0.89407343  0.84432513  0.10453022    -0.29000
C927        C  0.88150738  0.85641742  0.11752518     0.06500
C928        C  0.89772626  0.87851043  0.13345985    -0.27700
H929        H  0.92403596  0.82816618  0.07907154     0.11200
H930        H  0.97519299  0.85203854  0.07759847     0.12400
H931        H  0.93366651  0.92154636  0.16126676     0.11400
H932        H  0.98486360  0.94467554  0.16058248     0.10700
H933        H  0.02795873  0.95049413  0.14207044     0.16100
H934        H  0.02113246  0.89186988  0.08877781     0.12000
H935        H  0.88164757  0.82771552  0.09187938     0.14800
H936        H  0.88799043  0.88802150  0.14327407     0.14600
C937        C  0.15437604  0.02439390  0.94833798    -0.18300
C938        C  0.15290350  0.01134589  0.96997923    -0.20400
C939        C  0.16446476  0.02737027  0.99069022     0.20200
C940        C  0.17943855  0.05690281  0.98933012    -0.03400
C941        C  0.18103738  0.07008868  0.96743492    -0.06400
C942        C  0.16752335  0.05364668  0.94709402     0.20500
C943        C  0.19410085  0.09954965  0.96637757     0.18700
C944        C  0.20689624  0.11558587  0.98688348    -0.17900
C945        C  0.20520840  0.10249968  0.00862556    -0.20100
C946        C  0.19074674  0.07316470  0.01020204     0.20100
C947        C  0.18535474  0.05975372  0.03244663    -0.33100
C948        C  0.16851244  0.03047564  0.03385832     0.00800
C949        C  0.15923614  0.01437966  0.01298140    -0.24500
C950        C  0.16540332  0.06655314  0.92647926    -0.29000
C951        C  0.17667830  0.09559102  0.92593552     0.06500
C952        C  0.19213163  0.11218976  0.94542045    -0.27700
H953        H  0.14411957  0.01153257  0.93281882     0.11200
H954        H  0.14152649  0.98867276  0.97075300     0.12400
H955        H  0.21712569  0.13820655  0.98635447     0.11400
H956        H  0.21415854  0.11529856  0.02441927     0.10700
H957        H  0.19208669  0.07206448  0.04870370     0.16100
H958        H  0.14597094  0.99178047  0.01428358     0.12000
H959        H  0.15317354  0.05384410  0.91145898     0.14800
H960        H  0.20031469  0.13455703  0.94503811     0.14600
C961        C  0.03560613  0.06035607  0.14246321    -0.18300
C962        C  0.04702257  0.04337531  0.13981009    -0.20400
C963        C  0.07457738  0.05472182  0.13160364     0.20200
C964        C  0.09134767  0.08367139  0.12710219    -0.03400
C965        C  0.07984591  0.10089772  0.12992814    -0.06400
C966        C  0.05160631  0.08896922  0.13705424     0.20500
C967        C  0.09594266  0.12959482  0.12407381     0.18700
C968        C  0.12379060  0.14102612  0.11652973    -0.17900
C969        C  0.13520279  0.12392288  0.11375541    -0.20100
C970        C  0.11898028  0.09506289  0.11844331     0.20100
C971        C  0.12917043  0.07711055  0.11332557    -0.33100
C972        C  0.11173653  0.04799988  0.11643068     0.00800
C973        C  0.08498141  0.03726174  0.12649143    -0.24500
C974        C  0.03924582  0.10534633  0.13693688    -0.29000
C975        C  0.05466256  0.13337531  0.12971502     0.06500
C976        C  0.08323939  0.14576215  0.12418739    -0.27700
H977        H  0.01394851  0.05091566  0.14798692     0.11200
H978        H  0.03395987  0.02114636  0.14338546     0.12400
H979        H  0.13644181  0.16301193  0.11197553     0.11400
H980        H  0.15644539  0.13312549  0.10717332     0.10700
H981        H  0.14974583  0.08548056  0.10546598     0.16100
H982        H  0.07155766  0.01485645  0.12916777     0.12000
H983        H  0.01704742  0.09575403  0.14061399     0.14800
H984        H  0.09484485  0.16725994  0.11798094     0.14600
C985        C  0.83712960  0.75845776  0.98437665    -0.18300
C986        C  0.82695887  0.76160638  0.00629412    -0.20400
C987        C  0.81913972  0.78167210  0.00905157     0.20200
C988        C  0.81965295  0.79728868  0.98905346    -0.03400
C989        C  0.82960341  0.79388302  0.96689580    -0.06400
C990        C  0.83946677  0.77517704  0.96478884     0.20500
C991        C  0.83188898  0.81093265  0.94743925     0.18700
C992        C  0.82239867  0.82972192  0.94971387    -0.17900
C993        C  0.81274254  0.83322912  0.97166995    -0.20100
C994        C  0.81231885  0.81789009  0.99160752     0.20100
C995        C  0.80664358  0.82419316  0.01431923    -0.33100
C996        C  0.80790006  0.80999896  0.03442947     0.00800
C997        C  0.81276754  0.78784358  0.03168135    -0.24500
C998        C  0.85364447  0.77536225  0.94391021    -0.29000
C999        C  0.85820057  0.79427753  0.92549093     0.06500
C1000       C  0.84591739  0.81076603  0.92680289    -0.27700
H1001       H  0.84433584  0.74381712  0.98305586     0.11200
H1002       H  0.82647516  0.74927084  0.02138822     0.12400
H1003       H  0.82380374  0.84275636  0.93484058     0.11400
H1004       H  0.80682351  0.84884157  0.97330859     0.10700
H1005       H  0.80264809  0.84113059  0.01657354     0.16100
H1006       H  0.81377102  0.77700322  0.04731553     0.12000
H1007       H  0.86343523  0.76291326  0.94298059     0.14800
H1008       H  0.84961851  0.82544356  0.91256750     0.14600
C1009       C  0.91500832  0.94457112  0.84920116    -0.18300
C1010       C  0.90450089  0.96234123  0.85165005    -0.20400
C1011       C  0.87569733  0.95123641  0.85451789     0.20200
C1012       C  0.85705520  0.92200111  0.85369175    -0.03400
C1013       C  0.86771639  0.90399805  0.85136408    -0.06400
C1014       C  0.89686700  0.91541851  0.84971893     0.20500
C1015       C  0.84941103  0.87466509  0.85222144     0.18700
C1016       C  0.82044455  0.86369096  0.85405107    -0.17900
C1017       C  0.80983324  0.88156126  0.85619611    -0.20100
C1018       C  0.82799330  0.91075595  0.85666437     0.20100
C1019       C  0.81793088  0.92885408  0.86141561    -0.33100
C1020       C  0.83683985  0.95778013  0.86383541     0.00800
C1021       C  0.86545351  0.96882061  0.85961608    -0.24500
C1022       C  0.90758490  0.89764076  0.85034302    -0.29000
C1023       C  0.88974282  0.86855396  0.85314662     0.06500
C1024       C  0.86055637  0.85702904  0.85289628    -0.27700
H1025       H  0.93738416  0.95364069  0.84788136     0.11200
H1026       H  0.91898665  0.98474109  0.85216693     0.12400
H1027       H  0.80602869  0.84124081  0.85463293     0.11400
H1028       H  0.78747801  0.87250637  0.85833806     0.10700
H1029       H  0.79584813  0.92036707  0.86481935     0.16100
H1030       H  0.87994416  0.99114925  0.86143269     0.12000
H1031       H  0.92997084  0.90665498  0.85034227     0.14800
H1032       H  0.84665816  0.83464704  0.85522583     0.14600
C1033       C  0.06707596  0.89873409  0.95509810    -0.18300
C1034       C  0.08418342  0.91146859  0.97497168    -0.20400
C1035       C  0.07377748  0.90240182  0.99808108     0.20200
C1036       C  0.04619227  0.87960181  0.00117992    -0.03400
C1037       C  0.02866265  0.86720159  0.98112043    -0.06400
C1038       C  0.03913072  0.87703449  0.95801651     0.20500
C1039       C  0.00033969  0.84591765  0.98426631     0.18700
C1040       C  0.99038533  0.83604349  0.00734218    -0.17900
C1041       C  0.00793477  0.84791696  0.02718015    -0.20100
C1042       C  0.03565094  0.87019568  0.02436682     0.20100
C1043       C  0.05236710  0.88441825  0.04430092    -0.33100
C1044       C  0.07883869  0.90874312  0.04127835     0.00800
C1045       C  0.08981708  0.91688484  0.01812295    -0.24500
C1046       C  0.02117582  0.86584807  0.93832418    -0.29000
C1047       C  0.99258447  0.84583817  0.94142991     0.06500
C1048       C  0.98231030  0.83569019  0.96440322    -0.27700
H1049       H  0.07543218  0.90649701  0.93747246     0.11200
H1050       H  0.10534675  0.92887784  0.97228638     0.12400
H1051       H  0.96881629  0.81953837  0.01010744     0.11400
H1052       H  0.99949935  0.84033156  0.04482022     0.10700
H1053       H  0.04380276  0.87805366  0.06207206     0.16100
H1054       H  0.11021598  0.93562202  0.01568977     0.12000
H1055       H  0.02908685  0.87389458  0.92063757     0.14800
H1056       H  0.96030364  0.82017169  0.96679745     0.14600
C1057       C  0.10252422  0.98531364  0.85456345    -0.18300
C1058       C  0.08404353  0.95633311  0.85601495    -0.20400
C1059       C  0.05506326  0.94493836  0.85411053     0.20200
C1060       C  0.04467670  0.96289026  0.84979593    -0.03400
C1061       C  0.06329004  0.99208050  0.84833703    -0.06400
C1062       C  0.09232984  0.00338998  0.85121970     0.20500
C1063       C  0.05267591  0.01002087  0.84544715     0.18700
C1064       C  0.02377894  0.99864931  0.84285893    -0.17900
C1065       C  0.00535865  0.96974653  0.84428462    -0.20100
C1066       C  0.01558324  0.95183982  0.84831114     0.20100
C1067       C  0.99715085  0.92327439  0.85221457    -0.33100
C1068       C  0.00732156  0.90561329  0.85757345     0.00800
C1069       C  0.03620419  0.91618954  0.85775071    -0.24500
C1070       C  0.11037088  0.03255344  0.85241372    -0.29000
C1071       C  0.09950506  0.05031318  0.85151048     0.06500
C1072       C  0.07090499  0.03900864  0.84685894    -0.27700
H1073       H  0.12475934  0.99366189  0.85682606     0.11200
H1074       H  0.09237681  0.94289181  0.85930835     0.12400
H1075       H  0.01534516  0.01214323  0.84049951     0.11400
H1076       H  0.98311346  0.96146109  0.84292318     0.10700
H1077       H  0.97487179  0.91492375  0.85231485     0.16100
H1078       H  0.04389992  0.90247204  0.86231066     0.12000
H1079       H  0.13241174  0.04124014  0.85623517     0.14800
H1080       H  0.06253266  0.05272003  0.84600916     0.14600
C1081       C  0.00505271  0.86080526  0.76085471    -0.18300
C1082       C  0.01382874  0.86415758  0.73708229    -0.20400
C1083       C  0.99787643  0.84347412  0.72008513     0.20200
C1084       C  0.97294858  0.81897640  0.72722272    -0.03400
C1085       C  0.96387247  0.81573742  0.75120117    -0.06400
C1086       C  0.98003635  0.83681476  0.76803888     0.20500
C1087       C  0.93857707  0.79155416  0.75828354     0.18700
C1088       C  0.92303607  0.77052698  0.74139229    -0.17900
C1089       C  0.93213974  0.77364904  0.71767647    -0.20100
C1090       C  0.95690145  0.79791696  0.71036172     0.20100
C1091       C  0.96559572  0.80174467  0.68641997    -0.33100
C1092       C  0.99000660  0.82652991  0.67896086     0.00800
C1093       C  0.00618023  0.84712109  0.69604097    -0.24500
C1094       C  0.97091518  0.83356356  0.79176187    -0.29000
C1095       C  0.94555354  0.80987562  0.79885391     0.06500
C1096       C  0.92937780  0.78889877  0.78209193    -0.27700
H1097       H  0.01772814  0.87714764  0.77360931     0.11200
H1098       H  0.03304967  0.88304357  0.73195701     0.12400
H1099       H  0.90371793  0.75173611  0.74648101     0.11400
H1100       H  0.91959969  0.75721274  0.70497162     0.10700
H1101       H  0.95286147  0.78570093  0.67346983     0.16100
H1102       H  0.02499887  0.86623306  0.69056580     0.12000
H1103       H  0.98349785  0.84958811  0.80481445     0.14800
H1104       H  0.91007994  0.77038523  0.78770540     0.14600
C1105       C  0.82968786  0.80700209  0.24701238    -0.18300
C1106       C  0.82664761  0.80858114  0.22242789    -0.20400
C1107       C  0.80672940  0.81439889  0.21344748     0.20200
C1108       C  0.78989099  0.81895786  0.22934200    -0.03400
C1109       C  0.79298096  0.81738859  0.25416505    -0.06400
C1110       C  0.81285566  0.81120604  0.26301683     0.20500
C1111       C  0.77616798  0.82196593  0.27009333     0.18700
C1112       C  0.75652275  0.82816200  0.26109515    -0.17900
C1113       C  0.75346628  0.82972276  0.23649025    -0.20100
C1114       C  0.77002222  0.82514563  0.22045487     0.20100
C1115       C  0.76723727  0.82688273  0.19572627    -0.33100
C1116       C  0.78396254  0.82234062  0.17978163     0.00800
C1117       C  0.80354347  0.81595195  0.18884548    -0.24500
C1118       C  0.81550022  0.80924980  0.28769426    -0.29000
C1119       C  0.79868270  0.81360035  0.30369801     0.06500
C1120       C  0.77921356  0.82017270  0.29472646    -0.27700
H1121       H  0.84512524  0.80236808  0.25350357     0.11200
H1122       H  0.83983502  0.80518067  0.21043102     0.12400
H1123       H  0.74346932  0.83175730  0.27309749     0.11400
H1124       H  0.73815530  0.83453784  0.23000310     0.10700
H1125       H  0.75221218  0.83193342  0.18891502     0.16100
H1126       H  0.81679498  0.81274259  0.17674968     0.12000
H1127       H  0.83077390  0.80450249  0.29443487     0.14800
H1128       H  0.76622614  0.82366344  0.30690932     0.14600
C1129       C  0.94743011  0.80821161  0.46947613    -0.18300
C1130       C  0.93064131  0.80434294  0.44960410    -0.20400
C1131       C  0.90296096  0.79795445  0.45255898     0.20200
C1132       C  0.89163588  0.79404473  0.47574843    -0.03400
C1133       C  0.90839854  0.79739406  0.49576434    -0.06400
C1134       C  0.93670793  0.80537238  0.49262628     0.20500
C1135       C  0.89728722  0.79433211  0.51893652     0.18700
C1136       C  0.86947949  0.78749837  0.52191692    -0.17900
C1137       C  0.85309577  0.78482457  0.50211954    -0.20100
C1138       C  0.86415192  0.78855357  0.47902794     0.20100
C1139       C  0.84895759  0.78888619  0.45932486    -0.33100
C1140       C  0.86080737  0.79447975  0.43641424     0.00800
C1141       C  0.88715272  0.79749803  0.43292248    -0.24500
C1142       C  0.95407630  0.81172073  0.51267139    -0.29000
C1143       C  0.94316457  0.80926240  0.53570691     0.06500
C1144       C  0.91459897  0.79963950  0.53873237    -0.27700
H1145       H  0.96904823  0.81414366  0.46673844     0.11200
H1146       H  0.93966083  0.80744963  0.43194627     0.12400
H1147       H  0.86069798  0.78516035  0.53960829     0.11400
H1148       H  0.83204090  0.78059285  0.50489902     0.10700
H1149       H  0.82867389  0.78671551  0.46197337     0.16100
H1150       H  0.89645382  0.80228417  0.41528640     0.12000
H1151       H  0.97619181  0.81936134  0.51039583     0.14800
H1152       H  0.90634428  0.79830687  0.55652768     0.14600
C1153       C  0.81458121  0.04684240  0.74443129    -0.18300
C1154       C  0.81071115  0.03833119  0.72057649    -0.20400
C1155       C  0.80065835  0.01024362  0.71461558     0.20200
C1156       C  0.79421876  0.99043195  0.73280568    -0.03400
C1157       C  0.79764625  0.99893655  0.75692417    -0.06400
C1158       C  0.80814753  0.02735144  0.76275009     0.20500
C1159       C  0.79066401  0.97905073  0.77517885     0.18700
C1160       C  0.78078281  0.95098925  0.76918279    -0.17900
C1161       C  0.77786373  0.94266520  0.74526480    -0.20100
C1162       C  0.78447275  0.96218768  0.72690654     0.20100
C1163       C  0.78156827  0.95404177  0.70279751    -0.33100
C1164       C  0.78770855  0.97371155  0.68460628     0.00800
C1165       C  0.79712029  0.00171607  0.69075439    -0.24500
C1166       C  0.81204232  0.03576115  0.78676100    -0.29000
C1167       C  0.80465058  0.01595181  0.80498070     0.06500
C1168       C  0.79381113  0.98762765  0.79908165    -0.27700
H1169       H  0.82255594  0.06867950  0.74855576     0.11200
H1170       H  0.81578088  0.05379053  0.70675226     0.12400
H1171       H  0.77543023  0.93547970  0.78301470     0.11400
H1172       H  0.77033408  0.92091893  0.74112768     0.10700
H1173       H  0.77429003  0.93244996  0.69820488     0.16100
H1174       H  0.80225410  0.01714781  0.67686690     0.12000
H1175       H  0.82035196  0.05757138  0.79131554     0.14800
H1176       H  0.78842822  0.97236180  0.81316998     0.14600
C1177       C  0.73103554  0.85106282  0.47872070    -0.18300
C1178       C  0.72939928  0.86267353  0.50044220    -0.20400
C1179       C  0.74700360  0.86565530  0.51954981     0.20200
C1180       C  0.76494499  0.85490493  0.51724407    -0.03400
C1181       C  0.76672301  0.84339207  0.49534500    -0.06400
C1182       C  0.75040727  0.84236953  0.47568152     0.20500
C1183       C  0.78655661  0.83509372  0.49259711     0.18700
C1184       C  0.80287319  0.83631484  0.51206165    -0.17900
C1185       C  0.80100841  0.84754320  0.53372588    -0.20100
C1186       C  0.78287453  0.85776608  0.53616776     0.20100
C1187       C  0.78416569  0.87290234  0.55644618    -0.33100
C1188       C  0.76843401  0.88592427  0.55794801     0.00800
C1189       C  0.74876448  0.88113325  0.54010008    -0.24500
C1190       C  0.75552977  0.83496643  0.45300744    -0.29000
C1191       C  0.77718253  0.82936232  0.45002674     0.06500
C1192       C  0.79147405  0.82798018  0.47000633    -0.27700
H1193       H  0.71814494  0.85020561  0.46392902     0.11200
H1194       H  0.71528844  0.87050202  0.50191775     0.12400
H1195       H  0.81799273  0.82977899  0.51021115     0.11400
H1196       H  0.81473205  0.84946308  0.54821515     0.10700
H1197       H  0.79931337  0.87668263  0.57028544     0.16100
H1198       H  0.73681678  0.89143329  0.54120718     0.12000
H1199       H  0.74462842  0.83614937  0.43748631     0.14800
H1200       H  0.80804673  0.82347442  0.46759921     0.14600
C1201       C  0.84945356  0.83020909  0.61352133    -0.18300
C1202       C  0.83272401  0.84210799  0.61552389    -0.20400
C1203       C  0.84432591  0.86998561  0.62307649     0.20200
C1204       C  0.87287686  0.88570689  0.62950503    -0.03400
C1205       C  0.88967637  0.87358359  0.62777737    -0.06400
C1206       C  0.87806253  0.84587716  0.61922609     0.20500
C1207       C  0.91845297  0.88974616  0.63332415     0.18700
C1208       C  0.93000650  0.91745926  0.64122847    -0.17900
C1209       C  0.91346513  0.92953284  0.64267944    -0.20100
C1210       C  0.88503687  0.91402928  0.63641176     0.20100
C1211       C  0.86899761  0.92680264  0.63563946    -0.33100
C1212       C  0.84084593  0.91158293  0.62837124     0.00800
C1213       C  0.82834020  0.88290155  0.62300126    -0.24500
C1214       C  0.89560537  0.83501051  0.61525108    -0.29000
C1215       C  0.92445089  0.85159307  0.61983075     0.06500
C1216       C  0.93552100  0.87851954  0.62950020    -0.27700
H1217       H  0.84014543  0.80894863  0.60695266     0.11200
H1218       H  0.81087010  0.82975583  0.61045436     0.12400
H1219       H  0.95209077  0.93011990  0.64554551     0.11400
H1220       H  0.92309492  0.95124849  0.64807924     0.10700
H1221       H  0.87874109  0.94894931  0.63964298     0.16100
H1222       H  0.80678226  0.87122370  0.61696855     0.12000
H1223       H  0.88723656  0.81450323  0.60722390     0.14800
H1224       H  0.95791227  0.89142998  0.63258626     0.14600
C1225       C  0.11654860  0.95489686  0.25994819    -0.18300
C1226       C  0.11413189  0.94909032  0.23548371    -0.20400
C1227       C  0.12791478  0.97083957  0.21886686     0.20200
C1228       C  0.14391344  0.99879141  0.22705626    -0.03400
C1229       C  0.14635302  0.00466266  0.25176177    -0.06400
C1230       C  0.13280089  0.98256394  0.26825406     0.20500
C1231       C  0.16255513  0.03259299  0.25993716     0.18700
C1232       C  0.17576729  0.05441718  0.24331627    -0.17900
C1233       C  0.17335375  0.04860920  0.21886314    -0.20100
C1234       C  0.15768144  0.02087283  0.21059260     0.20100
C1235       C  0.15569035  0.01487836  0.18614534    -0.33100
C1236       C  0.14009724  0.98704336  0.17771637     0.00800
C1237       C  0.12609551  0.96513205  0.19425933    -0.24500
C1238       C  0.13590217  0.98845199  0.29276080    -0.29000
C1239       C  0.15241302  0.01619011  0.30115118     0.06500
C1240       C  0.16544844  0.03818605  0.28455340    -0.27700
H1241       H  0.10588360  0.93769423  0.27239650     0.11200
H1242       H  0.10164397  0.92753458  0.22956847     0.12400
H1243       H  0.18816889  0.07597430  0.24923002     0.11400
H1244       H  0.18394116  0.06582191  0.20641245     0.10700
H1245       H  0.16637570  0.03204556  0.17365655     0.16100
H1246       H  0.11380165  0.94368724  0.18801505     0.12000
H1247       H  0.12545205  0.97131569  0.30531708     0.14800
H1248       H  0.17796049  0.05962166  0.29076228     0.14600
C1249       C  0.09900615  0.90338013  0.46732567    -0.18300
C1250       C  0.08755054  0.88796129  0.48827614    -0.20400
C1251       C  0.08867293  0.90154501  0.50970829     0.20200
C1252       C  0.10254930  0.93110409  0.51021845    -0.03400
C1253       C  0.11366465  0.94661583  0.48900658    -0.06400
C1254       C  0.11149846  0.93262759  0.46737283     0.20500
C1255       C  0.12534636  0.97592443  0.48918863     0.18700
C1256       C  0.12741192  0.98965277  0.51074692    -0.17900
C1257       C  0.11675374  0.97434841  0.53179865    -0.20100
C1258       C  0.10361370  0.94505563  0.53156710     0.20100
C1259       C  0.08962044  0.92938800  0.55182669    -0.33100
C1260       C  0.07407848  0.90003240  0.55090880     0.00800
C1261       C  0.07445952  0.88612098  0.53016136    -0.24500
C1262       C  0.12031652  0.94793815  0.44600106    -0.29000
C1263       C  0.13021759  0.97674974  0.44600893     0.06500
C1264       C  0.13327017  0.99073920  0.46763051    -0.27700
H1265       H  0.09718242  0.89231968  0.45089648     0.11200
H1266       H  0.07706872  0.86532422  0.48755449     0.12400
H1267       H  0.13650056  0.01215203  0.51119588     0.11400
H1268       H  0.11776171  0.98532355  0.54807047     0.10700
H1269       H  0.08869061  0.93997854  0.56773246     0.16100
H1270       H  0.06184731  0.86344962  0.52935272     0.12000
H1271       H  0.11753581  0.93716770  0.42919130     0.14800
H1272       H  0.14073027  0.01296666  0.46748666     0.14600
C1273       C  0.99536141  0.95432277  0.33874618    -0.18300
C1274       C  0.96628499  0.93609526  0.33817113    -0.20400
C1275       C  0.95401708  0.90947303  0.34865490     0.20200
C1276       C  0.97137872  0.90053191  0.35858027    -0.03400
C1277       C  0.00072189  0.91885644  0.35902350    -0.06400
C1278       C  0.01263809  0.94618857  0.34976192     0.20500
C1279       C  0.01793749  0.91042840  0.37008132     0.18700
C1280       C  0.00577058  0.88338015  0.37964867    -0.17900
C1281       C  0.97670454  0.86532185  0.37939732    -0.20100
C1282       C  0.95934102  0.87394466  0.36941660     0.20100
C1283       C  0.93016099  0.85712088  0.37131122    -0.33100
C1284       C  0.91292582  0.86654097  0.36260975     0.00800
C1285       C  0.92476261  0.89229935  0.35068797    -0.24500
C1286       C  0.04129973  0.96541888  0.35306932    -0.29000
C1287       C  0.05818830  0.95759890  0.36533786     0.06500
C1288       C  0.04671287  0.92975532  0.37276128    -0.27700
H1289       H  0.00423833  0.97516784  0.33137481     0.11200
H1290       H  0.95332014  0.94323372  0.33034017     0.12400
H1291       H  0.01866496  0.87654855  0.38813271     0.11400
H1292       H  0.96774409  0.84491987  0.38768295     0.10700
H1293       H  0.92082942  0.83730919  0.38071331     0.16100
H1294       H  0.91131188  0.89960226  0.34427793     0.12000
H1295       H  0.05024563  0.98689367  0.34715064     0.14800
H1296       H  0.05970723  0.92376278  0.38230269     0.14600
C1297       C  0.17201150  0.15518121  0.71780330    -0.18300
C1298       C  0.17544425  0.15105434  0.74183118    -0.20400
C1299       C  0.16488019  0.16066701  0.75973682     0.20200
C1300       C  0.15069768  0.17459443  0.75335236    -0.03400
C1301       C  0.14679280  0.17831708  0.72907582    -0.06400
C1302       C  0.15768809  0.16871098  0.71127438     0.20500
C1303       C  0.13188077  0.19148318  0.72263041     0.18700
C1304       C  0.12138118  0.20115508  0.74056831    -0.17900
C1305       C  0.12567430  0.19790159  0.76464179    -0.20100
C1306       C  0.14025635  0.18462565  0.77120598     0.20100
C1307       C  0.14431275  0.18091131  0.79528505    -0.33100
C1308       C  0.15792261  0.16656261  0.80174354     0.00800
C1309       C  0.16807021  0.15641814  0.78389087    -0.24500
C1310       C  0.15392806  0.17260853  0.68723898    -0.29000
C1311       C  0.13887442  0.18542524  0.68060525     0.06500
C1312       C  0.12771306  0.19466027  0.69839388    -0.27700
H1313       H  0.18042277  0.14761861  0.70429819     0.11200
H1314       H  0.18640376  0.14037131  0.74641342     0.12400
H1315       H  0.10991787  0.21132198  0.73597990     0.11400
H1316       H  0.11742096  0.20561786  0.77814540     0.10700
H1317       H  0.13613266  0.18844401  0.80903927     0.16100
H1318       H  0.17860147  0.14539268  0.78883271     0.12000
H1319       H  0.16225277  0.16506752  0.67361391     0.14800
H1320       H  0.11608374  0.20453493  0.69337390     0.14600
C1321       C  0.18701209  0.12106137  0.51738148    -0.18300
C1322       C  0.19148626  0.10966982  0.49683661    -0.20400
C1323       C  0.18286416  0.11374172  0.47450830     0.20200
C1324       C  0.17114431  0.13085187  0.47266674    -0.03400
C1325       C  0.16590345  0.14168695  0.49348205    -0.06400
C1326       C  0.17336393  0.13623213  0.51595050     0.20500
C1327       C  0.15154684  0.15634708  0.49192472     0.18700
C1328       C  0.14459962  0.16195562  0.46942452    -0.17900
C1329       C  0.15027815  0.15167879  0.44873904    -0.20100
C1330       C  0.16267494  0.13532836  0.45024520     0.20100
C1331       C  0.16456398  0.12145141  0.43008466    -0.33100
C1332       C  0.17347493  0.10219383  0.43236579     0.00800
C1333       C  0.18363116  0.09922975  0.45435024    -0.24500
C1334       C  0.16552862  0.14451501  0.53666301    -0.29000
C1335       C  0.14929319  0.15712414  0.53531483     0.06500
C1336       C  0.14306678  0.16374381  0.51289491    -0.27700
H1337       H  0.19302550  0.11686623  0.53451485     0.11200
H1338       H  0.20075371  0.09682709  0.49852111     0.12400
H1339       H  0.13388867  0.17345841  0.46787242     0.11400
H1340       H  0.14374427  0.15539247  0.43164512     0.10700
H1341       H  0.15618244  0.12322396  0.41319018     0.16100
H1342       H  0.19017137  0.08408578  0.45608461     0.12000
H1343       H  0.17045752  0.13938955  0.55390614     0.14800
H1344       H  0.13091693  0.17383468  0.51179030     0.14600
C1345       C  0.94831458  0.03747276  0.64163478    -0.18300
C1346       C  0.97695035  0.05698162  0.64322997    -0.20400
C1347       C  0.98711992  0.08551732  0.63952607     0.20200
C1348       C  0.96823944  0.09486365  0.63600398    -0.03400
C1349       C  0.93927872  0.07519647  0.63469420    -0.06400
C1350       C  0.92948485  0.04632361  0.63661379     0.20500
C1351       C  0.92037489  0.08424149  0.62974583     0.18700
C1352       C  0.93053491  0.11299008  0.62738774    -0.17900
C1353       C  0.95934178  0.13248977  0.62839157    -0.20100
C1354       C  0.97841890  0.12356052  0.63194220     0.20100
C1355       C  0.00738922  0.14228842  0.62947888    -0.33100
C1356       C  0.02587901  0.13230878  0.63059669     0.00800
C1357       C  0.01582396  0.10443349  0.63718645    -0.24500
C1358       C  0.90134392  0.02675948  0.63199759    -0.29000
C1359       C  0.88285023  0.03565295  0.62582408     0.06500
C1360       C  0.89200633  0.06427739  0.62571798    -0.27700
H1361       H  0.94101375  0.01539702  0.64342226     0.11200
H1362       H  0.99125191  0.04961245  0.64621781     0.12400
H1363       H  0.91631205  0.12029233  0.62373150     0.11400
H1364       H  0.96676330  0.15444019  0.62540115     0.10700
H1365       H  0.01520297  0.16384144  0.62436446     0.16100
H1366       H  0.03023230  0.09692880  0.63841054     0.12000
H1367       H  0.89399620  0.00454848  0.63213795     0.14800
H1368       H  0.87755681  0.07093788  0.62078025     0.14600
C1369       C  0.01584102  0.99281150  0.62266047    -0.18300
C1370       C  0.02707635  0.02174110  0.62152682    -0.20400
C1371       C  0.05618378  0.04028748  0.62168043     0.20200
C1372       C  0.07418013  0.02970221  0.62397690    -0.03400
C1373       C  0.06281298  0.00039889  0.62488792    -0.06400
C1374       C  0.03353583  0.98192323  0.62374724     0.20500
C1375       C  0.08075390  0.98960079  0.62574793     0.18700
C1376       C  0.10985400  0.00827271  0.62669027    -0.17900
C1377       C  0.12111573  0.03731949  0.62597442    -0.20100
C1378       C  0.10352188  0.04830312  0.62416950     0.20100
C1379       C  0.11467461  0.07734996  0.62138101    -0.33100
C1380       C  0.09674885  0.08769967  0.61766198     0.00800
C1381       C  0.06758540  0.06909298  0.61839419    -0.24500
C1382       C  0.02248983  0.95294142  0.62236426    -0.29000
C1383       C  0.04024409  0.94199975  0.62182218     0.06500
C1384       C  0.06934181  0.96042952  0.62440747    -0.27700
H1385       H  0.99332783  0.97892682  0.62187510     0.11200
H1386       H  0.01299247  0.02957582  0.61983072     0.12400
H1387       H  0.12397267  0.00039677  0.62740652     0.11400
H1388       H  0.14364709  0.05117836  0.62617554     0.10700
H1389       H  0.13714316  0.09158802  0.62055109     0.16100
H1390       H  0.05372561  0.07701290  0.61545826     0.12000
H1391       H  0.00007852  0.93897218  0.62044093     0.14800
H1392       H  0.08322537  0.95225044  0.62383489     0.14600
C1393       C  0.02577283  0.20088357  0.24071445    -0.18300
C1394       C  0.01945234  0.19764721  0.26504634    -0.20400
C1395       C  0.99166677  0.18580083  0.27283751     0.20200
C1396       C  0.97001981  0.17740375  0.25606669    -0.03400
C1397       C  0.97641484  0.18068827  0.23147865    -0.06400
C1398       C  0.00441630  0.19231354  0.22375911     0.20500
C1399       C  0.95475208  0.17188583  0.21464492     0.18700
C1400       C  0.92699893  0.16036027  0.22248100    -0.17900
C1401       C  0.92066841  0.15711330  0.24685770    -0.20100
C1402       C  0.94197855  0.16534949  0.26383351     0.20100
C1403       C  0.93576181  0.16146558  0.28837210    -0.33100
C1404       C  0.95730835  0.16960495  0.30517014     0.00800
C1405       C  0.98520222  0.18193624  0.29713215    -0.24500
C1406       C  0.01049982  0.19456850  0.19925753    -0.29000
C1407       C  0.98889577  0.18504548  0.18236394     0.06500
C1408       C  0.96112628  0.17417688  0.19027073    -0.27700
H1409       H  0.04735040  0.20983807  0.23515290     0.11200
H1410       H  0.03630401  0.20421687  0.27779009     0.12400
H1411       H  0.91012182  0.15354699  0.20973254     0.11400
H1412       H  0.89906572  0.14791312  0.25241857     0.10700
H1413       H  0.91426520  0.15198825  0.29434389     0.16100
H1414       H  0.00208543  0.18826876  0.30981268     0.12000
H1415       H  0.03188959  0.20291741  0.19337589     0.14800
H1416       H  0.94426948  0.16693634  0.17742707     0.14600
C1417       C  0.86632444  0.09158587  0.52410890    -0.18300
C1418       C  0.87785792  0.10777159  0.50362958    -0.20400
C1419       C  0.87036525  0.09532071  0.48100264     0.20200
C1420       C  0.85033681  0.06645830  0.47887960    -0.03400
C1421       C  0.83913357  0.04999703  0.49958914    -0.06400
C1422       C  0.84742210  0.06264656  0.52227679     0.20500
C1423       C  0.82079832  0.02073073  0.49761333     0.18700
C1424       C  0.81260501  0.00848859  0.47491860    -0.17900
C1425       C  0.82341939  0.02488369  0.45435336    -0.20100
C1426       C  0.84280514  0.05375997  0.45613703     0.20100
C1427       C  0.85628340  0.06978536  0.43577053    -0.33100
C1428       C  0.87775813  0.09794505  0.43812225     0.00800
C1429       C  0.88396513  0.11082659  0.46060039    -0.24500
C1430       C  0.83770119  0.04598467  0.54274271    -0.29000
C1431       C  0.82076595  0.01672718  0.54089079     0.06500
C1432       C  0.81199987  0.00418230  0.51833071    -0.27700
H1433       H  0.87288097  0.10156583  0.54142538     0.11200
H1434       H  0.89318311  0.12990283  0.50550521     0.12400
H1435       H  0.79838559  0.98610409  0.47306806     0.11400
H1436       H  0.81739097  0.01479728  0.43705321     0.10700
H1437       H  0.85201535  0.05974300  0.41843193     0.16100
H1438       H  0.90079807  0.13248795  0.46232952     0.12000
H1439       H  0.84470860  0.05564631  0.56015051     0.14800
H1440       H  0.79884299  0.98158767  0.51693714     0.14600
C1441       C  0.07398555  0.23062723  0.47104635    -0.18300
C1442       C  0.08840697  0.23483163  0.49254918    -0.20400
C1443       C  0.07369279  0.22299100  0.51380733     0.20200
C1444       C  0.04410268  0.20836522  0.51364363    -0.03400
C1445       C  0.02956389  0.20392462  0.49193814    -0.06400
C1446       C  0.04460837  0.21441189  0.47042006     0.20500
C1447       C  0.00003449  0.18714302  0.49155449     0.18700
C1448       C  0.98524496  0.17669734  0.51297080    -0.17900
C1449       C  0.99962209  0.18116150  0.53444675    -0.20100
C1450       C  0.02899412  0.19606374  0.53479922     0.20100
C1451       C  0.04339717  0.19655363  0.55538005    -0.33100
C1452       C  0.07256662  0.20862499  0.55497087     0.00800
C1453       C  0.08783055  0.22320236  0.53464622    -0.24500
C1454       C  0.03007408  0.20688424  0.44860931    -0.29000
C1455       C  0.00090757  0.18855060  0.44822573     0.06500
C1456       C  0.98593284  0.17949251  0.46966494    -0.27700
H1457       H  0.08586147  0.23901261  0.45473830     0.11200
H1458       H  0.11108460  0.24626964  0.49235406     0.12400
H1459       H  0.96258462  0.16402873  0.51297188     0.11400
H1460       H  0.98776596  0.17176147  0.55059373     0.10700
H1461       H  0.03170407  0.18498720  0.57102243     0.16100
H1462       H  0.11029784  0.23203052  0.53425725     0.12000
H1463       H  0.04154022  0.21360619  0.43193920     0.14800
H1464       H  0.96342465  0.16527873  0.46919927     0.14600
C1465       C  0.91553658  0.99921459  0.34858531    -0.18300
C1466       C  0.90314399  0.97015762  0.34970211    -0.20400
C1467       C  0.87451972  0.95303287  0.35487438     0.20200
C1468       C  0.85776600  0.96497071  0.35752415    -0.03400
C1469       C  0.87022879  0.99434904  0.35602892    -0.06400
C1470       C  0.89942084  0.01154682  0.35234265     0.20500
C1471       C  0.85385868  0.00659847  0.35978984     0.18700
C1472       C  0.82496886  0.98924076  0.36391910    -0.17900
C1473       C  0.81266367  0.96010423  0.36562091    -0.20100
C1474       C  0.82898704  0.94775956  0.36310283     0.20100
C1475       C  0.81760339  0.91892732  0.36752007    -0.33100
C1476       C  0.83490536  0.90749801  0.36657341     0.00800
C1477       C  0.86286590  0.92444210  0.35898130    -0.24500
C1478       C  0.91225268  0.04073276  0.35402579    -0.29000
C1479       C  0.89626955  0.05294644  0.35896943     0.06500
C1480       C  0.86700116  0.03595057  0.36093008    -0.27700
H1481       H  0.93789868  0.01209618  0.34555862     0.11200
H1482       H  0.91619760  0.96116284  0.34751196     0.12400
H1483       H  0.81206733  0.99828340  0.36675139     0.11400
H1484       H  0.79054296  0.94732095  0.36972570     0.10700
H1485       H  0.79601460  0.90596110  0.37323447     0.16100
H1486       H  0.87620314  0.91563938  0.35770110     0.12000
H1487       H  0.93486717  0.05391624  0.35287594     0.14800
H1488       H  0.85482093  0.04546765  0.36526438     0.14600
C1489       C  0.11189177  0.14955921  0.37215985    -0.18300
C1490       C  0.09430856  0.16045510  0.37385686    -0.20400
C1491       C  0.06634839  0.14458281  0.36631289     0.20200
C1492       C  0.05635170  0.11785562  0.35605456    -0.03400
C1493       C  0.07406268  0.10685288  0.35435469    -0.06400
C1494       C  0.10180870  0.12261393  0.36287790     0.20500
C1495       C  0.06345055  0.07937628  0.34558991     0.18700
C1496       C  0.03569415  0.06370354  0.33755471    -0.17900
C1497       C  0.01819458  0.07465859  0.33912661    -0.20100
C1498       C  0.02816950  0.10138996  0.34884941     0.20100
C1499       C  0.00996304  0.11114024  0.35294019    -0.33100
C1500       C  0.01929299  0.13685515  0.36455923     0.00800
C1501       C  0.04774145  0.15410620  0.37026122    -0.24500
C1502       C  0.11832110  0.11041202  0.36345851    -0.29000
C1503       C  0.10721022  0.08259238  0.35611680     0.06500
C1504       C  0.08016275  0.06739299  0.34656249    -0.27700
H1505       H  0.13313325  0.16186117  0.37881812     0.11200
H1506       H  0.10234144  0.18096053  0.38177161     0.12400
H1507       H  0.02726245  0.04264083  0.33077647     0.11400
H1508       H  0.99656436  0.06181971  0.33352276     0.10700
H1509       H  0.98798435  0.09788039  0.34842688     0.16100
H1510       H  0.05486538  0.17380010  0.37942805     0.12000
H1511       H  0.13905178  0.12174981  0.37131670     0.14800
H1512       H  0.07152490  0.04567374  0.34150555     0.14600
C1513       C  0.46341617  0.64600321  0.19981206    -0.18300
C1514       C  0.47294841  0.66105238  0.17853362    -0.20400
C1515       C  0.46841887  0.64697100  0.15673784     0.20200
C1516       C  0.45557892  0.61751619  0.15647546    -0.03400
C1517       C  0.44562248  0.60226811  0.17796203    -0.06400
C1518       C  0.44896601  0.61663465  0.19958961     0.06100
C1519       C  0.43046662  0.57265808  0.17754817     0.18700
C1520       C  0.42716259  0.55869605  0.15583682    -0.17900
C1521       C  0.43747219  0.57383745  0.13457686    -0.20100
C1522       C  0.45100390  0.60319929  0.13460202     0.20100
C1523       C  0.45850304  0.61838030  0.11311001    -0.33100
C1524       C  0.46948657  0.64743854  0.11332025     0.00800
C1525       C  0.47500310  0.66167355  0.13514505    -0.24500
C1526       C  0.43569210  0.60142880  0.22021245    -0.29000
C1527       C  0.41850430  0.57215480  0.21944254     0.06500
C1528       C  0.41697634  0.55769134  0.19842357    -0.27700
H1529       H  0.46620379  0.65729639  0.21632048     0.11200
H1530       H  0.48299184  0.68364979  0.17903776     0.12400
H1531       H  0.41572799  0.53601895  0.15516321     0.11400
H1532       H  0.43385764  0.56250541  0.11797966     0.10700
H1533       H  0.45390452  0.60740045  0.09620608     0.16100
H1534       H  0.48339528  0.68407708  0.13522209     0.12000
H1535       H  0.43637542  0.61251295  0.23634854     0.14800
H1536       H  0.40319672  0.53512800  0.19772987     0.14600
C1537       C  0.64131380  0.78247715  0.03108616    -0.18300
C1538       C  0.66886235  0.79507831  0.03926213    -0.20400
C1539       C  0.67563418  0.78302576  0.05801454     0.20200
C1540       C  0.65482205  0.75736187  0.06791238    -0.03400
C1541       C  0.62695766  0.74453612  0.05955032    -0.06400
C1542       C  0.62014553  0.75757503  0.04146576     0.20500
C1543       C  0.60573340  0.71941716  0.07001473     0.18700
C1544       C  0.61285269  0.70695383  0.08822265    -0.17900
C1545       C  0.64049190  0.71972008  0.09656114    -0.20100
C1546       C  0.66159075  0.74519679  0.08684816     0.20100
C1547       C  0.68896258  0.75938776  0.09636693    -0.33100
C1548       C  0.70918090  0.78577011  0.08739367     0.00800
C1549       C  0.70256076  0.79692116  0.06776194    -0.24500
C1550       C  0.59212536  0.74625413  0.03485593    -0.29000
C1551       C  0.57069616  0.72195089  0.04589016     0.06500
C1552       C  0.57766723  0.70802078  0.06286731    -0.27700
H1553       H  0.63642555  0.79262324  0.01707336     0.11200
H1554       H  0.68471584  0.81470631  0.03140771     0.12400
H1555       H  0.59689055  0.68766263  0.09644675     0.11400
H1556       H  0.64522356  0.70998297  0.11102831     0.10700
H1557       H  0.69403993  0.75076713  0.11149639     0.16100
H1558       H  0.71827422  0.81711913  0.06060803     0.12000
H1559       H  0.58678919  0.75697794  0.02170130     0.14800
H1560       H  0.56113907  0.68943598  0.07157476     0.14600
C1561       C  0.29782864  0.51589837  0.13715559    -0.18300
C1562       C  0.28103742  0.51040170  0.11698673    -0.20400
C1563       C  0.25214066  0.49100042  0.11808412     0.20200
C1564       C  0.24012842  0.47640524  0.13950157    -0.03400
C1565       C  0.25715247  0.48165368  0.15974000    -0.06400
C1566       C  0.28604284  0.50187540  0.15866963     0.20500
C1567       C  0.24505380  0.46749328  0.18128993     0.18700
C1568       C  0.21617961  0.44796790  0.18232954    -0.17900
C1569       C  0.19921646  0.44319995  0.16242224    -0.20100
C1570       C  0.21090353  0.45759802  0.14105619     0.20100
C1571       C  0.19376009  0.45476532  0.12167997    -0.33100
C1572       C  0.20562092  0.46988701  0.10067307     0.00800
C1573       C  0.23480359  0.48714458  0.09860778    -0.24500
C1574       C  0.30242629  0.50842225  0.17932928    -0.29000
C1575       C  0.29036109  0.49486400  0.20101094     0.06500
C1576       C  0.26180855  0.47390690  0.20167590    -0.27700
H1577       H  0.31996737  0.53144074  0.13602690     0.11200
H1578       H  0.29053088  0.52185671  0.10070163     0.12400
H1579       H  0.20658334  0.43693415  0.19875134     0.11400
H1580       H  0.17685733  0.42865543  0.16388490     0.10700
H1581       H  0.17116225  0.44197101  0.12330491     0.16100
H1582       H  0.24374936  0.49940875  0.08253766     0.12000
H1583       H  0.32441817  0.52459148  0.17867905     0.14800
H1584       H  0.25227311  0.46356967  0.21836504     0.14600
C1585       C  0.31234357  0.53670396  0.02496242    -0.18300
C1586       C  0.34134983  0.55521776  0.02698157    -0.20400
C1587       C  0.35246414  0.58415105  0.02955325     0.20200
C1588       C  0.33408428  0.59450261  0.02933068    -0.03400
C1589       C  0.30488730  0.57588048  0.02730747    -0.06400
C1590       C  0.29388363  0.54676365  0.02546061     0.20500
C1591       C  0.28664057  0.58634099  0.02836000     0.18700
C1592       C  0.29761527  0.61521632  0.03047853    -0.17900
C1593       C  0.32644990  0.63360622  0.03231701    -0.20100
C1594       C  0.34473550  0.62339589  0.03214006     0.20100
C1595       C  0.37337428  0.64157764  0.03572011    -0.33100
C1596       C  0.39187160  0.63153398  0.03701364     0.00800
C1597       C  0.38139119  0.60280652  0.03326207    -0.24500
C1598       C  0.26464190  0.52827093  0.02551810    -0.29000
C1599       C  0.24660799  0.53872607  0.02790069     0.06500
C1600       C  0.25769788  0.56768971  0.02870603    -0.27700
H1601       H  0.30430522  0.51443765  0.02358326     0.11200
H1602       H  0.35504537  0.54682455  0.02705920     0.12400
H1603       H  0.28385072  0.62352002  0.03131096     0.11400
H1604       H  0.33439632  0.65576317  0.03456715     0.10700
H1605       H  0.38112551  0.66366940  0.03832308     0.16100
H1606       H  0.39545276  0.59486539  0.03418265     0.12000
H1607       H  0.25600498  0.50583069  0.02557643     0.14800
H1608       H  0.24374243  0.57560799  0.03107763     0.14600
C1609       C  0.03332220  0.34860717  0.09121140    -0.18300
C1610       C  0.01981545  0.32087650  0.09944640    -0.20400
C1611       C  0.02712164  0.30200279  0.09040471     0.20200
C1612       C  0.04775783  0.31109340  0.07237080    -0.03400
C1613       C  0.06137761  0.33899174  0.06412069    -0.06400
C1614       C  0.05440423  0.35800120  0.07378665     0.20500
C1615       C  0.08276447  0.34811041  0.04683889     0.18700
C1616       C  0.08965701  0.32921201  0.03728578    -0.17900
C1617       C  0.07612828  0.30162740  0.04536231    -0.20100
C1618       C  0.05559359  0.29260195  0.06315894     0.20100
C1619       C  0.04363769  0.26570104  0.07254385    -0.33100
C1620       C  0.02409426  0.25681163  0.09122149     0.00800
C1621       C  0.01509901  0.27462111  0.09963969    -0.24500
C1622       C  0.06945027  0.38623598  0.06651797    -0.29000
C1623       C  0.09167894  0.39551108  0.05019881     0.06500
C1624       C  0.09773214  0.37623473  0.04007779    -0.27700
H1625       H  0.02766581  0.36287069  0.09883403     0.11200
H1626       H  0.00404397  0.31435482  0.11323574     0.12400
H1627       H  0.10595070  0.33593292  0.02393805     0.11400
H1628       H  0.08221258  0.28752296  0.03810358     0.10700
H1629       H  0.05026240  0.25178086  0.06578713     0.16100
H1630       H  0.00001492  0.26774746  0.11405271     0.12000
H1631       H  0.06498844  0.40122484  0.07450193     0.14800
H1632       H  0.11481499  0.38341169  0.02742848     0.14600
C1633       C  0.26886585  0.59702012  0.30473119    -0.18300
C1634       C  0.24946679  0.60562010  0.30669421    -0.20400
C1635       C  0.22081928  0.58629890  0.30345677     0.20200
C1636       C  0.21134686  0.55769184  0.29993876    -0.03400
C1637       C  0.23091626  0.54895078  0.29821277    -0.06400
C1638       C  0.25982946  0.56893365  0.29975246     0.20500
C1639       C  0.22167370  0.52060518  0.29327843     0.18700
C1640       C  0.19288040  0.50111380  0.29124446    -0.17900
C1641       C  0.17348808  0.50984859  0.29268638    -0.20100
C1642       C  0.18255397  0.53819438  0.29635313     0.20100
C1643       C  0.16375090  0.54776166  0.29456500    -0.33100
C1644       C  0.17369558  0.57656008  0.29578273     0.00800
C1645       C  0.20183318  0.59545333  0.30164655    -0.24500
C1646       C  0.27920147  0.56080897  0.29480387    -0.29000
C1647       C  0.27008852  0.53297069  0.28864487     0.06500
C1648       C  0.24143571  0.51266733  0.28893541    -0.27700
H1649       H  0.29099168  0.61252174  0.30620716     0.11200
H1650       H  0.25697367  0.62759175  0.30962167     0.12400
H1651       H  0.18542046  0.47927895  0.28756352     0.11400
H1652       H  0.15147704  0.49459011  0.29001915     0.10700
H1653       H  0.14204389  0.53322614  0.28994517     0.16100
H1654       H  0.20936791  0.61764595  0.30284172     0.12000
H1655       H  0.30140785  0.57637282  0.29465533     0.14800
H1656       H  0.23454303  0.49124701  0.28399931     0.14600
C1657       C  0.06984275  0.52793902  0.13799547    -0.18300
C1658       C  0.06687765  0.53844327  0.15980384    -0.20400
C1659       C  0.07702431  0.53344335  0.18095286     0.20200
C1660       C  0.08849535  0.51603872  0.18033075    -0.03400
C1661       C  0.09189017  0.50581692  0.15829438    -0.06400
C1662       C  0.08328385  0.51252592  0.13693380     0.20500
C1663       C  0.10607679  0.49095475  0.15747194     0.18700
C1664       C  0.11459337  0.48440633  0.17874950    -0.17900
C1665       C  0.11095159  0.49424217  0.20056923    -0.20100
C1666       C  0.09895404  0.51096763  0.20141199     0.20100
C1667       C  0.09978603  0.52490617  0.22247256    -0.33100
C1668       C  0.09104323  0.54437294  0.22259138     0.00800
C1669       C  0.07834393  0.54754545  0.20220337    -0.24500
C1670       C  0.09032684  0.50569492  0.11489390    -0.29000
C1671       C  0.10657124  0.49312411  0.11413149     0.06500
C1672       C  0.11345891  0.48485940  0.13536396    -0.27700
H1673       H  0.06292960  0.53311649  0.12181038     0.11200
H1674       H  0.05780174  0.55154374  0.15996168     0.12400
H1675       H  0.12523418  0.47276295  0.17841729     0.11400
H1676       H  0.11891060  0.49003650  0.21663456     0.10700
H1677       H  0.11008319  0.52298052  0.23811609     0.16100
H1678       H  0.07217631  0.56305560  0.20220872     0.12000
H1679       H  0.08537342  0.51235516  0.09842515     0.14800
H1680       H  0.12613612  0.47530217  0.13464606     0.14600
C1681       C  0.28250752  0.68903241  0.28208862    -0.18300
C1682       C  0.31141675  0.70734887  0.28361357    -0.20400
C1683       C  0.32243564  0.73601433  0.28756325     0.20200
C1684       C  0.30419598  0.74617146  0.29117126    -0.03400
C1685       C  0.27499382  0.72763745  0.28983271    -0.06400
C1686       C  0.26424321  0.69910834  0.28468744     0.20500
C1687       C  0.25664356  0.73786773  0.29249888     0.18700
C1688       C  0.26775145  0.76642893  0.29717678    -0.17900
C1689       C  0.29675712  0.78486876  0.29830920    -0.20100
C1690       C  0.31513374  0.77503014  0.29489678     0.20100
C1691       C  0.34416421  0.79368997  0.29375603    -0.33100
C1692       C  0.36224015  0.78382970  0.28851432     0.00800
C1693       C  0.35132295  0.75487289  0.28651875    -0.24500
C1694       C  0.23550738  0.68137862  0.28116440    -0.29000
C1695       C  0.21724036  0.69159770  0.28289734     0.06500
C1696       C  0.22767715  0.71958688  0.28937082    -0.27700
H1697       H  0.27446826  0.66712763  0.27823508     0.11200
H1698       H  0.32516638  0.69925260  0.28091943     0.12400
H1699       H  0.25402640  0.77464375  0.29931233     0.11400
H1700       H  0.30483385  0.80696894  0.30124196     0.10700
H1701       H  0.35245846  0.81601061  0.29530871     0.16100
H1702       H  0.36515218  0.74711111  0.28267395     0.12000
H1703       H  0.22735601  0.65968820  0.27629447     0.14800
H1704       H  0.21353271  0.72742389  0.29058104     0.14600
C1705       C  0.53616404  0.78599454  0.16074824    -0.18300
C1706       C  0.53300367  0.79813086  0.18140939    -0.20400
C1707       C  0.51985434  0.81378506  0.18044967     0.20200
C1708       C  0.51144437  0.81883392  0.15822602    -0.03400
C1709       C  0.51518051  0.80704983  0.13725448    -0.06400
C1710       C  0.52658599  0.78965178  0.13874152     0.20500
C1711       C  0.50548031  0.81082592  0.11515358     0.18700
C1712       C  0.49350370  0.82760144  0.11407551    -0.17900
C1713       C  0.48939919  0.83890993  0.13492853    -0.20100
C1714       C  0.49744672  0.83385864  0.15717768     0.20100
C1715       C  0.49004303  0.84178245  0.17847689    -0.33100
C1716       C  0.49696688  0.83529377  0.20069153     0.00800
C1717       C  0.51314840  0.82265908  0.20147299    -0.24500
C1718       C  0.52611153  0.77441453  0.11866525    -0.29000
C1719       C  0.51468675  0.77654971  0.09708440     0.06500
C1720       C  0.50579279  0.79589055  0.09502264    -0.27700
H1721       H  0.54514206  0.77286436  0.16213301     0.11200
H1722       H  0.53966942  0.79415909  0.19833320     0.12400
H1723       H  0.48606275  0.83084707  0.09726505     0.11400
H1724       H  0.47890846  0.85065900  0.13375495     0.10700
H1725       H  0.47767325  0.85166928  0.17783182     0.16100
H1726       H  0.51835140  0.81743818  0.21856187     0.12000
H1727       H  0.53261560  0.75922262  0.12027090     0.14800
H1728       H  0.49638874  0.79704669  0.07849575     0.14600
C1729       C  0.46205112  0.68141490  0.27589247    -0.18300
C1730       C  0.47336129  0.71030206  0.27355504    -0.20400
C1731       C  0.45793049  0.72251557  0.28065101     0.20200
C1732       C  0.43105038  0.70548964  0.29077369    -0.03400
C1733       C  0.41951233  0.67630690  0.29286609    -0.06400
C1734       C  0.43501677  0.66418784  0.28520558     0.20500
C1735       C  0.39190454  0.65910537  0.30143049     0.18700
C1736       C  0.37657015  0.67131172  0.30882911    -0.17900
C1737       C  0.38811318  0.70024133  0.30704473    -0.20100
C1738       C  0.41509015  0.71738889  0.29764698     0.20100
C1739       C  0.42575965  0.74594850  0.29378151    -0.33100
C1740       C  0.45188700  0.76263587  0.28280608     0.00800
C1741       C  0.46821394  0.75111555  0.27669892    -0.24500
C1742       C  0.42259263  0.63493539  0.28567139    -0.29000
C1743       C  0.39450747  0.61767863  0.29267150     0.06500
C1744       C  0.37954620  0.62991061  0.30111973    -0.27700
H1745       H  0.47415506  0.67242864  0.26978985     0.11200
H1746       H  0.49397650  0.72301754  0.26572704     0.12400
H1747       H  0.35535990  0.65838811  0.31544433     0.11400
H1748       H  0.37560841  0.70909511  0.31232470     0.10700
H1749       H  0.41308741  0.75494922  0.29806096     0.16100
H1750       H  0.48812650  0.76402865  0.26776235     0.12000
H1751       H  0.43397624  0.62552185  0.27871950     0.14800
H1752       H  0.35776999  0.61659375  0.30626973     0.14600
C1753       C  0.17906425  0.87767810  0.10910625    -0.18300
C1754       C  0.19115871  0.86264879  0.10097369    -0.20400
C1755       C  0.21368285  0.87487165  0.08492600     0.20200
C1756       C  0.22471926  0.90278904  0.07749607    -0.03400
C1757       C  0.21232214  0.91798049  0.08562559    -0.06400
C1758       C  0.18917798  0.90513421  0.10122424     0.20500
C1759       C  0.22242540  0.94557830  0.07755493     0.18700
C1760       C  0.24551734  0.95793899  0.06199061    -0.17900
C1761       C  0.25800479  0.94296573  0.05411845    -0.20100
C1762       C  0.24758628  0.91520964  0.06149622     0.20100
C1763       C  0.25905961  0.89940185  0.05279638    -0.33100
C1764       C  0.24727993  0.87115205  0.05949395     0.00800
C1765       C  0.22488492  0.85935261  0.07583159    -0.24500
C1766       C  0.17566638  0.91939329  0.10788030    -0.29000
C1767       C  0.18446061  0.94628768  0.09899200     0.06500
C1768       C  0.20850357  0.95972637  0.08441666    -0.27700
H1769       H  0.16134691  0.86757476  0.12113870     0.11200
H1770       H  0.18258508  0.84126597  0.10695112     0.12400
H1771       H  0.25367546  0.97908471  0.05558246     0.11400
H1772       H  0.27553336  0.95296236  0.04188940     0.10700
H1773       H  0.27632694  0.90866695  0.04026206     0.16100
H1774       H  0.21597111  0.83776627  0.08144243     0.12000
H1775       H  0.15732121  0.90895676  0.11925062     0.14800
H1776       H  0.21532567  0.98035690  0.07735267     0.14600
C1777       C  0.24015808  0.66284225  0.01008644    -0.18300
C1778       C  0.22854561  0.63389950  0.01143154    -0.20400
C1779       C  0.20098009  0.61648112  0.01950139     0.20200
C1780       C  0.18438883  0.62800460  0.02516817    -0.03400
C1781       C  0.19604965  0.65723755  0.02360589    -0.06400
C1782       C  0.22430267  0.67475964  0.01661251     0.20500
C1783       C  0.18003547  0.66906787  0.03047649     0.18700
C1784       C  0.15220482  0.65146872  0.03793725    -0.17900
C1785       C  0.14066993  0.62246475  0.03956029    -0.20100
C1786       C  0.15675599  0.61054833  0.03373227     0.20100
C1787       C  0.14644524  0.58189096  0.03771397    -0.33100
C1788       C  0.16375145  0.57092650  0.03356372     0.00800
C1789       C  0.19039469  0.58802666  0.02345109    -0.24500
C1790       C  0.23671097  0.70392589  0.01772499    -0.29000
C1791       C  0.22120524  0.71571251  0.02555733     0.06500
C1792       C  0.19271546  0.69833353  0.03119765    -0.27700
H1793       H  0.26181339  0.67598251  0.00463958     0.11200
H1794       H  0.24146685  0.62524250  0.00699868     0.12400
H1795       H  0.13964044  0.66023459  0.04327682     0.11400
H1796       H  0.11945580  0.60946330  0.04610341     0.10700
H1797       H  0.12594431  0.56872374  0.04561365     0.16100
H1798       H  0.20356822  0.57941213  0.01994525     0.12000
H1799       H  0.25885948  0.71746263  0.01395936     0.14800
H1800       H  0.18104479  0.70761188  0.03778623     0.14600
C1801       C  0.14818516  0.66664673  0.13714820    -0.18300
C1802       C  0.15831814  0.68357710  0.11684432    -0.20400
C1803       C  0.17221924  0.71284883  0.11888645     0.20200
C1804       C  0.17503772  0.72517239  0.14150273    -0.03400
C1805       C  0.16438534  0.70804873  0.16193577    -0.06400
C1806       C  0.15149560  0.67867532  0.15981111     0.20500
C1807       C  0.16782907  0.72041825  0.18459058     0.18700
C1808       C  0.18141036  0.74967688  0.18661359    -0.17900
C1809       C  0.19258028  0.76666065  0.16645464    -0.20100
C1810       C  0.18993271  0.75463884  0.14389289     0.20100
C1811       C  0.20348617  0.77147366  0.12397024    -0.33100
C1812       C  0.20171925  0.75919811  0.10167307     0.00800
C1813       C  0.18504836  0.73002444  0.09899854    -0.24500
C1814       C  0.14316595  0.66199128  0.18043630    -0.29000
C1815       C  0.14719029  0.67429602  0.20310638     0.06500
C1816       C  0.15877872  0.70343681  0.20493584    -0.27700
H1817       H  0.13824743  0.64414970  0.13516857     0.11200
H1818       H  0.15608036  0.67381011  0.09961389     0.12400
H1819       H  0.18420091  0.75947602  0.20390725     0.11400
H1820       H  0.20386431  0.78921498  0.16858882     0.10700
H1821       H  0.21690863  0.79396422  0.12606269     0.16100
H1822       H  0.18449595  0.72058503  0.08192881     0.12000
H1823       H  0.13420795  0.63956021  0.17889561     0.14800
H1824       H  0.16220696  0.71316286  0.22234540     0.14600
C1825       C  0.40035894  0.89193126  0.13776511    -0.18300
C1826       C  0.41550496  0.89492523  0.15861046    -0.20400
C1827       C  0.40167108  0.88034841  0.17943017     0.20200
C1828       C  0.37212572  0.86363502  0.17953223    -0.03400
C1829       C  0.35686836  0.86050386  0.15848433    -0.06400
C1830       C  0.37110520  0.87423340  0.13732834     0.20500
C1831       C  0.32754146  0.84214626  0.15823346     0.18700
C1832       C  0.31354987  0.82837361  0.17922625    -0.17900
C1833       C  0.32862291  0.83153102  0.20004822    -0.20100
C1834       C  0.35791904  0.84847178  0.20018442     0.20100
C1835       C  0.37332355  0.84887144  0.22002657    -0.33100
C1836       C  0.40268951  0.86400106  0.21948709     0.00800
C1837       C  0.41683624  0.88054468  0.19955634    -0.24500
C1838       C  0.35601973  0.86854176  0.11586473    -0.29000
C1839       C  0.32713980  0.84880059  0.11539109     0.06500
C1840       C  0.31293094  0.83640387  0.13668343    -0.27700
H1841       H  0.41164294  0.90269322  0.12173871     0.11200
H1842       H  0.43813390  0.90790292  0.15820839     0.12400
H1843       H  0.29104063  0.81435683  0.17931613     0.11400
H1844       H  0.31743899  0.81986262  0.21580239     0.10700
H1845       H  0.36253650  0.83571273  0.23527717     0.16100
H1846       H  0.43951790  0.89165987  0.19899256     0.12000
H1847       H  0.36700181  0.87769864  0.09930161     0.14800
H1848       H  0.29068604  0.82100416  0.13616826     0.14600
C1849       C  0.36408573  0.72207865  0.01611405    -0.18300
C1850       C  0.34517943  0.73123968  0.01836969    -0.20400
C1851       C  0.35473780  0.75931247  0.02392998     0.20200
C1852       C  0.38362124  0.77856891  0.02673121    -0.03400
C1853       C  0.40273420  0.76928921  0.02450069    -0.06400
C1854       C  0.39280321  0.74081612  0.01948024     0.20500
C1855       C  0.43155867  0.78813724  0.02846029     0.18700
C1856       C  0.44105557  0.81626506  0.03383601    -0.17900
C1857       C  0.42208814  0.82551470  0.03587889    -0.20100
C1858       C  0.39326768  0.80677727  0.03269366     0.20100
C1859       C  0.37381684  0.81536935  0.03632540    -0.33100
C1860       C  0.34494305  0.79588380  0.03444092     0.00800
C1861       C  0.33573898  0.76813944  0.02760990    -0.24500
C1862       C  0.41151867  0.73121124  0.01933911    -0.29000
C1863       C  0.43985962  0.74953462  0.02451824     0.06500
C1864       C  0.45002398  0.77808799  0.02840884    -0.27700
H1865       H  0.35620125  0.70022608  0.01219596     0.11200
H1866       H  0.32301295  0.71624792  0.01617371     0.12400
H1867       H  0.46309890  0.83098511  0.03698922     0.11400
H1868       H  0.42990859  0.84720271  0.04048852     0.10700
H1869       H  0.38100895  0.83668607  0.04180868     0.16100
H1870       H  0.31351102  0.75300828  0.02595388     0.12000
H1871       H  0.40375875  0.70908594  0.01695533     0.14800
H1872       H  0.47183618  0.79195110  0.03313433     0.14600
C1873       C  0.50253009  0.81594493  0.38394311    -0.18300
C1874       C  0.50660753  0.81241095  0.40801570    -0.20400
C1875       C  0.49813573  0.82401442  0.42598459     0.20200
C1876       C  0.48520946  0.83916130  0.41955001    -0.03400
C1877       C  0.48060989  0.84228327  0.39524465    -0.06400
C1878       C  0.48963244  0.83089436  0.37737871     0.20500
C1879       C  0.46710998  0.85689728  0.38883703     0.18700
C1880       C  0.45862602  0.86848120  0.40679982    -0.17900
C1881       C  0.46362564  0.86581899  0.43082787    -0.20100
C1882       C  0.47688843  0.85121777  0.43738289     0.20100
C1883       C  0.48181737  0.84834589  0.46145429    -0.33100
C1884       C  0.49433813  0.83297652  0.46810501     0.00800
C1885       C  0.50230046  0.82071587  0.45023355    -0.24500
C1886       C  0.48578335  0.83482827  0.35328220    -0.29000
C1887       C  0.47236770  0.84935077  0.34674621     0.06500
C1888       C  0.46261221  0.85989983  0.36461038    -0.27700
H1889       H  0.50947837  0.80696461  0.37043445     0.11200
H1890       H  0.51655554  0.80072931  0.41257572     0.12400
H1891       H  0.44829881  0.87980391  0.40225570     0.11400
H1892       H  0.45700831  0.87511861  0.44432166     0.10700
H1893       H  0.47528651  0.85757119  0.47511190     0.16100
H1894       H  0.51197122  0.80887712  0.45519564     0.12000
H1895       H  0.49298320  0.82632694  0.33952298     0.14800
H1896       H  0.45227432  0.87109403  0.35961808     0.14600
C1897       C  0.67242978  0.95192831  0.55031247    -0.18300
C1898       C  0.64513737  0.93877855  0.54122491    -0.20400
C1899       C  0.62289997  0.91645064  0.55355267     0.20200
C1900       C  0.62812186  0.90792651  0.57568196    -0.03400
C1901       C  0.65566486  0.92096801  0.58469611    -0.06400
C1902       C  0.67800136  0.94281109  0.57177326     0.20500
C1903       C  0.66097119  0.91133493  0.60614195     0.18700
C1904       C  0.63867385  0.88967462  0.61892229    -0.17900
C1905       C  0.61137088  0.87695010  0.61013227    -0.20100
C1906       C  0.60598277  0.88561966  0.58838291     0.20100
C1907       C  0.57899303  0.87174334  0.57873368    -0.33100
C1908       C  0.57391032  0.87942000  0.55639132     0.00800
C1909       C  0.59572212  0.90189214  0.54387889    -0.24500
C1910       C  0.70558871  0.95415185  0.57995198    -0.29000
C1911       C  0.71105129  0.94334174  0.60050320     0.06500
C1912       C  0.68858349  0.92259661  0.61388687    -0.27700
H1913       H  0.68931594  0.96872551  0.54019742     0.11200
H1914       H  0.64150827  0.94572592  0.52432510     0.12400
H1915       H  0.64243380  0.88215182  0.63545629     0.11400
H1916       H  0.59454373  0.85987308  0.62007557     0.10700
H1917       H  0.56201403  0.85416599  0.58816391     0.16100
H1918       H  0.59162388  0.90758453  0.52655369     0.12000
H1919       H  0.72286166  0.97016494  0.56955967     0.14800
H1920       H  0.69265672  0.91444173  0.62991188     0.14600
C1921       C  0.52099981  0.72057128  0.90997709    -0.18300
C1922       C  0.51981810  0.71424568  0.88567622    -0.20400
C1923       C  0.50182938  0.68682651  0.87740366     0.20200
C1924       C  0.48504309  0.66551526  0.89381000    -0.03400
C1925       C  0.48623192  0.67191418  0.91837004    -0.06400
C1926       C  0.50423346  0.69960138  0.92648324     0.20500
C1927       C  0.46929972  0.65064121  0.93475578     0.18700
C1928       C  0.45136855  0.62320762  0.92648797    -0.17900
C1929       C  0.45014387  0.61689361  0.90218264    -0.20100
C1930       C  0.46683863  0.63788251  0.88566943     0.20100
C1931       C  0.46524180  0.63182512  0.86115434    -0.33100
C1932       C  0.48142641  0.65309738  0.84457430     0.00800
C1933       C  0.49996073  0.68049168  0.85297896    -0.24500
C1934       C  0.50517308  0.70583339  0.95091642    -0.29000
C1935       C  0.48847484  0.68470111  0.96744324     0.06500
C1936       C  0.47057164  0.65713550  0.95910757    -0.27700
H1937       H  0.53497884  0.74191914  0.91585039     0.11200
H1938       H  0.53285808  0.73087304  0.87331539     0.12400
H1939       H  0.43820782  0.60660871  0.93883283     0.11400
H1940       H  0.43601663  0.59558677  0.89628653     0.10700
H1941       H  0.45080469  0.61072032  0.85494141     0.16100
H1942       H  0.51257437  0.69710616  0.84044733     0.12000
H1943       H  0.51908154  0.72708718  0.95707572     0.14800
H1944       H  0.45752052  0.64064325  0.97158665     0.14600
C1945       C  0.53915800  0.78669345  0.65904885    -0.18300
C1946       C  0.53409585  0.77184228  0.68037856    -0.20400
C1947       C  0.52080245  0.74252004  0.68016243     0.20200
C1948       C  0.51358304  0.72808389  0.65816284    -0.03400
C1949       C  0.51904223  0.74309594  0.63664148    -0.06400
C1950       C  0.53119406  0.77248025  0.63714685     0.20500
C1951       C  0.51039861  0.72847992  0.61477495     0.18700
C1952       C  0.49750850  0.69921307  0.61448504    -0.17900
C1953       C  0.49194476  0.68433497  0.63580925    -0.20100
C1954       C  0.49934721  0.69851586  0.65772147     0.20100
C1955       C  0.49152707  0.68360760  0.67921215    -0.33100
C1956       C  0.49809785  0.69788132  0.70103298     0.00800
C1957       C  0.51328746  0.72725674  0.70153211    -0.24500
C1958       C  0.53280319  0.78671538  0.61603890    -0.29000
C1959       C  0.52204375  0.77177854  0.59472056     0.06500
C1960       C  0.51239095  0.74306227  0.59388065    -0.27700
H1961       H  0.54847219  0.80921217  0.65974360     0.11200
H1962       H  0.53975568  0.78321976  0.69710034     0.12400
H1963       H  0.49070922  0.68773705  0.59783094     0.11400
H1964       H  0.48111003  0.66167219  0.63519977     0.10700
H1965       H  0.47944779  0.66088795  0.67902984     0.16100
H1966       H  0.51779028  0.73808727  0.71850479     0.12000
H1967       H  0.53946763  0.80874092  0.61669945     0.14800
H1968       H  0.50340991  0.73155717  0.57746903     0.14600
C1969       C  0.09001934  0.62348324  0.43047424    -0.18300
C1970       C  0.08683848  0.61414987  0.40687209    -0.20400
C1971       C  0.10771054  0.62965680  0.38990917     0.20200
C1972       C  0.13208731  0.65485501  0.39685026    -0.03400
C1973       C  0.13541945  0.66412980  0.42074768    -0.06400
C1974       C  0.11422756  0.64838959  0.43758072     0.20500
C1975       C  0.15996052  0.68907869  0.42778495     0.18700
C1976       C  0.18085056  0.70458543  0.41081443    -0.17900
C1977       C  0.17737436  0.69563067  0.38706097    -0.20100
C1978       C  0.15305495  0.67086786  0.37989145     0.20100
C1979       C  0.14914323  0.66198504  0.35603134    -0.33100
C1980       C  0.12492518  0.63695718  0.34906999     0.00800
C1981       C  0.10448807  0.62064172  0.36608321    -0.24500
C1982       C  0.11774199  0.65759480  0.46129702    -0.29000
C1983       C  0.14235341  0.68219186  0.46863429     0.06500
C1984       C  0.16330519  0.69791040  0.45168145    -0.27700
H1985       H  0.07357210  0.61112690  0.44321790     0.11200
H1986       H  0.06797479  0.59483968  0.40185977     0.12400
H1987       H  0.19984435  0.72373153  0.41588984     0.11400
H1988       H  0.19371810  0.70811216  0.37426962     0.10700
H1989       H  0.16489155  0.67451671  0.34279479     0.16100
H1990       H  0.08572297  0.60148083  0.36057715     0.12000
H1991       H  0.10150092  0.64514349  0.47418220     0.14800
H1992       H  0.18238559  0.71678075  0.45713380     0.14600
C1993       C  0.30840145  0.71136178  0.52738262    -0.18300
C1994       C  0.33735623  0.72341791  0.52910924    -0.20400
C1995       C  0.35516675  0.75257590  0.52778418     0.20200
C1996       C  0.34397100  0.76972602  0.52334104    -0.03400
C1997       C  0.31467693  0.75753593  0.52171652    -0.06400
C1998       C  0.29686314  0.72830817  0.52439379     0.20500
C1999       C  0.30319108  0.77470870  0.51883758     0.18700
C2000       C  0.32121720  0.80377070  0.51625436    -0.17900
C2001       C  0.35031903  0.81586500  0.51770238    -0.20100
C2002       C  0.36191041  0.79912959  0.52187032     0.20100
C2003       C  0.39084826  0.81124285  0.52587201    -0.33100
C2004       C  0.40155696  0.79417881  0.53197884     0.00800
C2005       C  0.38379814  0.76493192  0.53211215    -0.24500
C2006       C  0.26786709  0.71669246  0.52559062    -0.29000
C2007       C  0.25629428  0.73385781  0.52456867     0.06500
C2008       C  0.27398716  0.76271005  0.52008474    -0.27700
H2009       H  0.29499029  0.68887298  0.52929504     0.11200
H2010       H  0.34575964  0.71001657  0.53228763     0.12400
H2011       H  0.31278058  0.81726268  0.51388513     0.11400
H2012       H  0.36370022  0.83841164  0.51638368     0.10700
H2013       H  0.40462235  0.83381469  0.52576163     0.16100
H2014       H  0.39220071  0.75178788  0.53654104     0.12000
H2015       H  0.25444125  0.69444143  0.52887071     0.14800
H2016       H  0.26526670  0.77611038  0.51928223     0.14600
C2017       C  0.11850665  0.79213540  0.57591200    -0.18300
C2018       C  0.10440365  0.80535326  0.58363239    -0.20400
C2019       C  0.07505635  0.79058166  0.58457290     0.20200
C2020       C  0.05968975  0.76215106  0.57777741    -0.03400
C2021       C  0.07401139  0.74861859  0.57029006    -0.06400
C2022       C  0.10352517  0.76384093  0.56919795     0.20500
C2023       C  0.05888784  0.71999657  0.56386529     0.18700
C2024       C  0.02946555  0.70536121  0.56472092    -0.17900
C2025       C  0.01524466  0.71892298  0.57176954    -0.20100
C2026       C  0.03011912  0.74734995  0.57838085     0.20100
C2027       C  0.01611074  0.76129436  0.58555387    -0.33100
C2028       C  0.03147363  0.78964948  0.59265550     0.00800
C2029       C  0.06093314  0.80392476  0.59211144    -0.24500
C2030       C  0.11766340  0.75062999  0.56136224    -0.29000
C2031       C  0.10298042  0.72214276  0.55502981     0.06500
C2032       C  0.07351599  0.70672800  0.55661410    -0.27700
H2033       H  0.14118589  0.80406241  0.57522445     0.11200
H2034       H  0.11648091  0.82722907  0.58876573     0.12400
H2035       H  0.01741640  0.68343003  0.55981383     0.11400
H2036       H  0.99256470  0.70711397  0.57212221     0.10700
H2037       H  0.99343457  0.75008869  0.58588180     0.16100
H2038       H  0.07305912  0.82583922  0.59717955     0.12000
H2039       H  0.14036391  0.76253024  0.56049962     0.14800
H2040       H  0.06207960  0.68476635  0.55172766     0.14600
C2041       C  0.25438937  0.82607686  0.91066237    -0.18300
C2042       C  0.26186389  0.82979354  0.88645049    -0.20400
C2043       C  0.28936883  0.83848105  0.87936959     0.20200
C2044       C  0.30958415  0.84374775  0.89688302    -0.03400
C2045       C  0.30201895  0.83996726  0.92133386    -0.06400
C2046       C  0.27425433  0.83096852  0.92832645     0.20500
C2047       C  0.32225001  0.84501316  0.93874849     0.18700
C2048       C  0.34973626  0.85372971  0.93171473    -0.17900
C2049       C  0.35719740  0.85745627  0.90758888    -0.20100
C2050       C  0.33732484  0.85252899  0.88998990     0.20100
C2051       C  0.34464624  0.85583053  0.86566038    -0.33100
C2052       C  0.32450211  0.85005359  0.84799929     0.00800
C2053       C  0.29690960  0.84158523  0.85510848    -0.24500
C2054       C  0.26691562  0.82695913  0.95277953    -0.29000
C2055       C  0.28715244  0.83215577  0.97031198     0.06500
C2056       C  0.31474855  0.84119109  0.96292348    -0.27700
H2057       H  0.23300881  0.81923534  0.91555430     0.11200
H2058       H  0.24605123  0.82568177  0.87323989     0.12400
H2059       H  0.36551923  0.85764279  0.94491556     0.11400
H2060       H  0.37854204  0.86411580  0.90269079     0.10700
H2061       H  0.36582158  0.86213180  0.86045942     0.16100
H2062       H  0.28115962  0.83712175  0.84171710     0.12000
H2063       H  0.24563228  0.81996820  0.95813062     0.14800
H2064       H  0.33057678  0.84504042  0.97606944     0.14600
C2065       C  0.42560062  0.88954368  0.65550025    -0.18300
C2066       C  0.43682084  0.88536658  0.63471830    -0.20400
C2067       C  0.45156828  0.87126999  0.63556301     0.20200
C2068       C  0.45639518  0.86261530  0.65774795    -0.03400
C2069       C  0.44544637  0.86726800  0.67884065    -0.06400
C2070       C  0.42918990  0.87995804  0.67752567     0.20500
C2071       C  0.44905556  0.85745603  0.70094387     0.18700
C2072       C  0.46475440  0.84429694  0.70186596    -0.17900
C2073       C  0.47538138  0.83945778  0.68091972    -0.20100
C2074       C  0.47064428  0.84783131  0.65868612     0.20100
C2075       C  0.47849748  0.84040584  0.63731459    -0.33100
C2076       C  0.47256072  0.84791683  0.61508327     0.00800
C2077       C  0.46013361  0.86432132  0.61448023    -0.24500
C2078       C  0.41498872  0.88084556  0.69783854    -0.29000
C2079       C  0.41689958  0.86936455  0.71946885     0.06500
C2080       C  0.43505664  0.85898248  0.72127790    -0.27700
H2081       H  0.41329715  0.89943967  0.65422423     0.11200
H2082       H  0.43302628  0.89223012  0.61782041     0.12400
H2083       H  0.46782942  0.83670671  0.71866163     0.11400
H2084       H  0.48649355  0.82831173  0.68203254     0.10700
H2085       H  0.48826119  0.82792056  0.63793495     0.16100
H2086       H  0.45538080  0.87011478  0.59745620     0.12000
H2087       H  0.40061598  0.88839715  0.69639578     0.14800
H2088       H  0.43595884  0.84946311  0.73782718     0.14600
C2089       C  0.37900646  0.70799887  0.80452485    -0.18300
C2090       C  0.36868989  0.72598408  0.80692906    -0.20400
C2091       C  0.38614129  0.75476245  0.80263372     0.20200
C2092       C  0.41464769  0.76575282  0.79698564    -0.03400
C2093       C  0.42509156  0.74757969  0.79458373    -0.06400
C2094       C  0.40696186  0.71853677  0.79783396     0.20500
C2095       C  0.45320201  0.75826263  0.78761883     0.18700
C2096       C  0.47082933  0.78719568  0.78406658    -0.17900
C2097       C  0.46043252  0.80519436  0.78629180    -0.20100
C2098       C  0.43225509  0.79461347  0.79224406     0.20100
C2099       C  0.42088364  0.81195417  0.79189808    -0.33100
C2100       C  0.39219517  0.80068828  0.79605005     0.00800
C2101       C  0.37515804  0.77238692  0.80224231    -0.24500
C2102       C  0.41662624  0.70035454  0.79305361    -0.29000
C2103       C  0.44407155  0.71061367  0.78471373     0.06500
C2104       C  0.46265325  0.73967650  0.78298317    -0.27700
H2105       H  0.36488686  0.68572521  0.80718638     0.11200
H2106       H  0.34685032  0.71726927  0.81143739     0.12400
H2107       H  0.49244847  0.79580600  0.77877164     0.11400
H2108       H  0.47423523  0.82730121  0.78261966     0.10700
H2109       H  0.43378257  0.83366311  0.78644556     0.16100
H2110       H  0.35292699  0.76369190  0.80492759     0.12000
H2111       H  0.40227133  0.67794991  0.79470584     0.14800
H2112       H  0.48376837  0.74766940  0.77647678     0.14600
C2113       C  0.21762235  0.79669154  0.67832406    -0.18300
C2114       C  0.20270765  0.78546803  0.65708426    -0.20400
C2115       C  0.21656150  0.78518264  0.63626352     0.20200
C2116       C  0.24599139  0.79772902  0.63657267    -0.03400
C2117       C  0.26097515  0.80870517  0.65806021    -0.06400
C2118       C  0.24662283  0.80760570  0.67918225     0.20500
C2119       C  0.29001185  0.81900312  0.65872723     0.18700
C2120       C  0.30414777  0.82010928  0.63768027    -0.17900
C2121       C  0.28937300  0.80946585  0.61639010    -0.20100
C2122       C  0.26022177  0.79741702  0.61586193     0.20100
C2123       C  0.24485549  0.78305410  0.59558358    -0.33100
C2124       C  0.21549274  0.76862639  0.59581261     0.00800
C2125       C  0.20141831  0.77072429  0.61573897    -0.24500
C2126       C  0.26121758  0.81574762  0.70097489    -0.29000
C2127       C  0.28961889  0.82390449  0.70186217     0.06500
C2128       C  0.30406323  0.82633846  0.68064364    -0.27700
H2129       H  0.20627629  0.79578763  0.69432013     0.11200
H2130       H  0.18018118  0.77609381  0.65716733     0.12400
H2131       H  0.32647581  0.82821987  0.63787756     0.11400
H2132       H  0.30058188  0.80951510  0.60058016     0.10700
H2133       H  0.25557101  0.78098155  0.58027357     0.16100
H2134       H  0.17871796  0.75909554  0.61601574     0.12000
H2135       H  0.25006949  0.81370257  0.71741512     0.14800
H2136       H  0.32602256  0.83277960  0.68138990     0.14600
C2137       C  0.10045627  0.50363444  0.92763147    -0.18300
C2138       C  0.09890490  0.50723584  0.90312167    -0.20400
C2139       C  0.11140775  0.49789116  0.88680869     0.20200
C2140       C  0.12531946  0.48446130  0.89532606    -0.03400
C2141       C  0.12693627  0.48087244  0.92008252    -0.06400
C2142       C  0.11460315  0.49069701  0.93626730     0.20500
C2143       C  0.14124523  0.46786048  0.92862681     0.18700
C2144       C  0.15336348  0.45811340  0.91229196    -0.17900
C2145       C  0.15170823  0.46160748  0.88776939    -0.20100
C2146       C  0.13790333  0.47490448  0.87914575     0.20100
C2147       C  0.13664008  0.47894592  0.85463198    -0.33100
C2148       C  0.12299577  0.49248889  0.84591365     0.00800
C2149       C  0.11038176  0.50187877  0.86217319    -0.24500
C2150       C  0.11709139  0.48795509  0.96082288    -0.29000
C2151       C  0.13199879  0.47575137  0.96959924     0.06500
C2152       C  0.14366035  0.46534099  0.95332724    -0.27700
H2153       H  0.09083411  0.51125276  0.93985912     0.11200
H2154       H  0.08807531  0.51749971  0.89693668     0.12400
H2155       H  0.16436533  0.44802958  0.91848512     0.11400
H2156       H  0.16142162  0.45408824  0.87554631     0.10700
H2157       H  0.14650177  0.47164699  0.84233337     0.16100
H2158       H  0.09980928  0.51228917  0.85569012     0.12000
H2159       H  0.10787959  0.49595242  0.97312650     0.14800
H2160       H  0.15506246  0.45580592  0.95984916     0.14600
C2161       C  0.12797620  0.64639286  0.67847002    -0.18300
C2162       C  0.12435119  0.63020386  0.69869038    -0.20400
C2163       C  0.11587110  0.60183509  0.69638131     0.20200
C2164       C  0.10955143  0.58926187  0.67357575    -0.03400
C2165       C  0.11259057  0.60543011  0.65325224    -0.06400
C2166       C  0.12276808  0.63435939  0.65565781     0.20500
C2167       C  0.10710661  0.59301953  0.63042116     0.18700
C2168       C  0.09806973  0.56452641  0.62811210    -0.17900
C2169       C  0.09574710  0.54869164  0.64819170    -0.20100
C2170       C  0.10197208  0.56101466  0.67090029     0.20100
C2171       C  0.10260138  0.54617839  0.69073472    -0.33100
C2172       C  0.11028215  0.55908294  0.71319266     0.00800
C2173       C  0.11555306  0.58637721  0.71619758    -0.24500
C2174       C  0.12906543  0.65096720  0.63516586    -0.29000
C2175       C  0.12453355  0.63876478  0.61245869     0.06500
C2176       C  0.11243802  0.60967964  0.61020931    -0.27700
H2177       H  0.13560197  0.66850793  0.68063063     0.11200
H2178       H  0.12927750  0.64015532  0.71606423     0.12400
H2179       H  0.09383330  0.55475259  0.61068003     0.11400
H2180       H  0.08982188  0.52701837  0.64589258     0.10700
H2181       H  0.09874915  0.52515103  0.68850845     0.16100
H2182       H  0.12201690  0.59643305  0.73350618     0.12000
H2183       H  0.13847154  0.67345258  0.63681212     0.14800
H2184       H  0.10937232  0.60036748  0.59263683     0.14600
C2185       C  0.19753125  0.70079657  0.79222798    -0.18300
C2186       C  0.17924332  0.67175132  0.79328374    -0.20400
C2187       C  0.18974324  0.65368520  0.79371829     0.20200
C2188       C  0.21896045  0.66501566  0.79446393    -0.03400
C2189       C  0.23734599  0.69424792  0.79351926    -0.06400
C2190       C  0.22659600  0.71222224  0.79161273     0.20500
C2191       C  0.26645934  0.70532868  0.79283244     0.18700
C2192       C  0.27707331  0.68743168  0.79439806    -0.17900
C2193       C  0.25887829  0.65847746  0.79509797    -0.20100
C2194       C  0.22986124  0.64710343  0.79442145     0.20100
C2195       C  0.21164326  0.61823614  0.79203946    -0.33100
C2196       C  0.18278365  0.60709128  0.79001617     0.00800
C2197       C  0.17172112  0.62458650  0.79180209    -0.24500
C2198       C  0.24500564  0.74096934  0.78749762    -0.29000
C2199       C  0.27381086  0.75157593  0.78489441     0.06500
C2200       C  0.28442533  0.73388645  0.78887830    -0.27700
H2201       H  0.18890928  0.71426048  0.79096315     0.11200
H2202       H  0.15687327  0.66337781  0.79282717     0.12400
H2203       H  0.29941734  0.69575574  0.79395240     0.11400
H2204       H  0.26750587  0.64496512  0.79524582     0.10700
H2205       H  0.21996913  0.60452200  0.79035183     0.16100
H2206       H  0.14935706  0.61575204  0.78980376     0.12000
H2207       H  0.23677695  0.75461014  0.78472224     0.14800
H2208       H  0.30670084  0.74202463  0.78741317     0.14600
C2209       C  0.27185674  0.50697849  0.77060204    -0.18300
C2210       C  0.30093614  0.51902905  0.77144774    -0.20400
C2211       C  0.31812125  0.54597422  0.78096145     0.20200
C2212       C  0.30586531  0.56055163  0.79054855    -0.03400
C2213       C  0.27653228  0.54840861  0.78964700    -0.06400
C2214       C  0.25946394  0.52168751  0.77919648     0.20500
C2215       C  0.26447850  0.56370145  0.79792422     0.18700
C2216       C  0.28156767  0.59036012  0.80799511    -0.17900
C2217       C  0.31061816  0.60239685  0.80887242    -0.20100
C2218       C  0.32301895  0.58793789  0.79972737     0.20100
C2219       C  0.35226032  0.60098105  0.79825835    -0.33100
C2220       C  0.36438478  0.58693482  0.78777877     0.00800
C2221       C  0.34737073  0.55925470  0.77979312    -0.24500
C2222       C  0.23063965  0.51099332  0.77615455    -0.29000
C2223       C  0.21903189  0.52708062  0.78290114     0.06500
C2224       C  0.23581679  0.55283908  0.79461196    -0.27700
H2225       H  0.25913059  0.48648983  0.76253236     0.11200
H2226       H  0.31005812  0.50759714  0.76401598     0.12400
H2227       H  0.27254256  0.60230197  0.81446896     0.11400
H2228       H  0.32344588  0.62336463  0.81600702     0.10700
H2229       H  0.36553405  0.62257667  0.80389911     0.16100
H2230       H  0.35692757  0.54874714  0.77132908     0.12000
H2231       H  0.21776925  0.49129739  0.76687445     0.14800
H2232       H  0.22676358  0.56518251  0.79993113     0.14600
C2233       C  0.25549053  0.45645941  0.40581786    -0.18300
C2234       C  0.26401576  0.45994404  0.38190943    -0.20400
C2235       C  0.29236390  0.47739191  0.37576612     0.20200
C2236       C  0.31233772  0.49131140  0.39391524    -0.03400
C2237       C  0.30379145  0.48739907  0.41808608    -0.06400
C2238       C  0.27517858  0.47009766  0.42408868     0.20500
C2239       C  0.32389787  0.50088531  0.43622202     0.18700
C2240       C  0.35220125  0.51845165  0.43009841    -0.17900
C2241       C  0.36056818  0.52274420  0.40618274    -0.20100
C2242       C  0.34084682  0.50927269  0.38793513     0.20100
C2243       C  0.34912776  0.51356569  0.36385642    -0.33100
C2244       C  0.32939745  0.49962576  0.34563623     0.00800
C2245       C  0.30105183  0.48138170  0.35181154    -0.24500
C2246       C  0.26684553  0.46674416  0.44820929    -0.29000
C2247       C  0.28692840  0.47975210  0.46636302     0.06500
C2248       C  0.31538577  0.49664879  0.46016454    -0.27700
H2249       H  0.23347807  0.44302943  0.41001826     0.11200
H2250       H  0.24837444  0.44913098  0.36818785     0.12400
H2251       H  0.36789446  0.52902825  0.44383843     0.11400
H2252       H  0.38252385  0.53656203  0.40195950     0.10700
H2253       H  0.37095860  0.52763650  0.35929501     0.16100
H2254       H  0.28558487  0.47080253  0.33790276     0.12000
H2255       H  0.24492720  0.45360960  0.45289337     0.14800
H2256       H  0.33093603  0.50695749  0.47407908     0.14600
C2257       C  0.24671243  0.60585337  0.51161004    -0.18300
C2258       C  0.23524504  0.62293358  0.51273077    -0.20400
C2259       C  0.20690638  0.61150020  0.51849206     0.20200
C2260       C  0.18960920  0.58241174  0.52227245    -0.03400
C2261       C  0.20117816  0.56509084  0.52096148    -0.06400
C2262       C  0.22999665  0.57703625  0.51612141     0.20500
C2263       C  0.18428805  0.53614246  0.52571407     0.18700
C2264       C  0.15580302  0.52471676  0.53109028    -0.17900
C2265       C  0.14437911  0.54193227  0.53257428    -0.20100
C2266       C  0.16117467  0.57089778  0.52858558     0.20100
C2267       C  0.15057718  0.58878675  0.53204370    -0.33100
C2268       C  0.16823043  0.61787952  0.52926449     0.00800
C2269       C  0.19601008  0.62890428  0.52183447    -0.24500
C2270       C  0.24195931  0.56030869  0.51718477    -0.29000
C2271       C  0.22559065  0.53173951  0.52297627     0.06500
C2272       C  0.19654779  0.51952132  0.52633426    -0.27700
H2273       H  0.26884851  0.61531834  0.50782721     0.11200
H2274       H  0.24874609  0.64524339  0.50976704     0.12400
H2275       H  0.14251773  0.50256192  0.53482825     0.11400
H2276       H  0.12254712  0.53267502  0.53741265     0.10700
H2277       H  0.12930981  0.58037460  0.53829077     0.16100
H2278       H  0.20961676  0.65138555  0.51999082     0.12000
H2279       H  0.26435128  0.56982081  0.51467817     0.14800
H2280       H  0.18392591  0.49760583  0.53121396     0.14600
C2281       C  0.33975748  0.51442508  0.69731917    -0.18300
C2282       C  0.32278603  0.50279434  0.67713840    -0.20400
C2283       C  0.33430599  0.51039803  0.65415974     0.20200
C2284       C  0.36347664  0.52888602  0.65155235    -0.03400
C2285       C  0.38049061  0.54101858  0.67186610    -0.06400
C2286       C  0.36847709  0.53412513  0.69485716     0.20500
C2287       C  0.40915951  0.56142115  0.66906938     0.18700
C2288       C  0.42095646  0.56811879  0.64618489    -0.17900
C2289       C  0.40426725  0.55558234  0.62611378    -0.20100
C2290       C  0.37544648  0.53651107  0.62860433     0.20100
C2291       C  0.35821983  0.52609546  0.60850947    -0.33100
C2292       C  0.32901863  0.50917557  0.61092831     0.00800
C2293       C  0.31713337  0.50095937  0.63377027    -0.24500
C2294       C  0.38493589  0.54860215  0.71476279    -0.29000
C2295       C  0.41275080  0.57062550  0.71172058     0.06500
C2296       C  0.42503368  0.57621526  0.68901610    -0.27700
H2297       H  0.33020031  0.50888149  0.71483232     0.11200
H2298       H  0.30050927  0.48844905  0.67950334     0.12400
H2299       H  0.44293807  0.58364935  0.64377236     0.11400
H2300       H  0.41372430  0.56160078  0.60857838     0.10700
H2301       H  0.36740798  0.53270099  0.59090784     0.16100
H2302       H  0.29459920  0.48780956  0.63563591     0.12000
H2303       H  0.37534625  0.54470829  0.73224677     0.14800
H2304       H  0.44642018  0.59341903  0.68671674     0.14600
C2305       C  0.18203710  0.43609219  0.67939528    -0.18300
C2306       C  0.19301971  0.43308788  0.65788807    -0.20400
C2307       C  0.18835854  0.44304135  0.63647526     0.20200
C2308       C  0.17117717  0.45477690  0.63656590    -0.03400
C2309       C  0.16032318  0.45805126  0.65828815    -0.06400
C2310       C  0.16636392  0.44927071  0.67988952     0.20500
C2311       C  0.14520535  0.47199163  0.65857073     0.18700
C2312       C  0.13949635  0.48085858  0.63706920    -0.17900
C2313       C  0.15009147  0.47746670  0.61556371    -0.20100
C2314       C  0.16665222  0.46526834  0.61524364     0.20100
C2315       C  0.18066011  0.46554267  0.59440670    -0.33100
C2316       C  0.19940726  0.45588685  0.59466731     0.00800
C2317       C  0.20233066  0.44356821  0.61540156    -0.24500
C2318       C  0.15834392  0.45563281  0.70164794    -0.29000
C2319       C  0.14507750  0.47122166  0.70193230     0.06500
C2320       C  0.13778741  0.47857933  0.68043221    -0.27700
H2321       H  0.18679003  0.42914165  0.69578860     0.11200
H2322       H  0.20603970  0.42393241  0.65814280     0.12400
H2323       H  0.12777344  0.49140402  0.63699533     0.11400
H2324       H  0.14635755  0.48551820  0.59930966     0.10700
H2325       H  0.17900001  0.47563038  0.57849491     0.16100
H2326       H  0.21738533  0.43680960  0.61569205     0.12000
H2327       H  0.16435819  0.45045318  0.71835434     0.14800
H2328       H  0.12784418  0.49090382  0.68081492     0.14600
C2329       C  0.35044318  0.63790823  0.50998472    -0.18300
C2330       C  0.36891783  0.66687994  0.50932272    -0.20400
C2331       C  0.39681923  0.67853046  0.51661872     0.20200
C2332       C  0.40646896  0.66080353  0.52402967    -0.03400
C2333       C  0.38776519  0.63153164  0.52480592    -0.06400
C2334       C  0.35954735  0.62014169  0.51802290     0.20500
C2335       C  0.39694369  0.61381181  0.53339400     0.18700
C2336       C  0.42489433  0.62553797  0.54064752    -0.17900
C2337       C  0.44347852  0.65456547  0.53977305    -0.20100
C2338       C  0.43443653  0.67239891  0.53168471     0.20100
C2339       C  0.45240095  0.70165164  0.53221717    -0.33100
C2340       C  0.44240665  0.71931085  0.52596407     0.00800
C2341       C  0.41481558  0.70764313  0.51775438    -0.24500
C2342       C  0.34060539  0.59136264  0.52052790    -0.29000
C2343       C  0.34942882  0.57381926  0.52967920     0.06500
C2344       C  0.37766698  0.58490311  0.53562511    -0.27700
H2345       H  0.32881629  0.62944051  0.50475410     0.11200
H2346       H  0.36123271  0.68021359  0.50360449     0.12400
H2347       H  0.43225813  0.61230160  0.54739015     0.11400
H2348       H  0.46481204  0.66312231  0.54587861     0.10700
H2349       H  0.47349816  0.71068312  0.53911714     0.16100
H2350       H  0.40705106  0.72129112  0.51324042     0.12000
H2351       H  0.31861807  0.58270560  0.51644523     0.14800
H2352       H  0.38417946  0.57134157  0.54328340     0.14600
C2353       C  0.22561073  0.33467708  0.61813545    -0.18300
C2354       C  0.23932219  0.36229778  0.60984759    -0.20400
C2355       C  0.24202021  0.36790235  0.58529733     0.20200
C2356       C  0.23170560  0.34547797  0.56890558    -0.03400
C2357       C  0.21847132  0.31758907  0.57729482    -0.06400
C2358       C  0.21474011  0.31218354  0.60202163     0.20500
C2359       C  0.20787785  0.29510222  0.56093993     0.18700
C2360       C  0.21107658  0.30076945  0.53638041    -0.17900
C2361       C  0.22363319  0.32836576  0.52806818    -0.20100
C2362       C  0.23360366  0.35084171  0.54416325     0.20100
C2363       C  0.24457427  0.37845465  0.53604067    -0.33100
C2364       C  0.25453946  0.40075833  0.55234950     0.00800
C2365       C  0.25389689  0.39543468  0.57687154    -0.24500
C2366       C  0.19908459  0.28441900  0.61014472    -0.29000
C2367       C  0.18776603  0.26198571  0.59393009     0.06500
C2368       C  0.19305762  0.26738577  0.56941925    -0.27700
H2369       H  0.22306037  0.33089149  0.63716258     0.11200
H2370       H  0.24713575  0.37927643  0.62266338     0.12400
H2371       H  0.20309169  0.28378550  0.52356966     0.11400
H2372       H  0.22510639  0.33209062  0.50902835     0.10700
H2373       H  0.24509286  0.38261401  0.51711472     0.16100
H2374       H  0.26128466  0.41264676  0.58944230     0.12000
H2375       H  0.19485798  0.28021481  0.62903089     0.14800
H2376       H  0.18389209  0.25006506  0.55688647     0.14600
C2377       C  0.87873602  0.66155802  0.85926531    -0.18300
C2378       C  0.86711765  0.63385243  0.86701039    -0.20400
C2379       C  0.86763240  0.62791448  0.89125079     0.20200
C2380       C  0.88087601  0.65022018  0.90773444    -0.03400
C2381       C  0.89314137  0.67821800  0.89983276    -0.06400
C2382       C  0.89140923  0.68386012  0.87557337     0.20500
C2383       C  0.90621239  0.70048550  0.91635875     0.18700
C2384       C  0.90713151  0.69458580  0.94053579    -0.17900
C2385       C  0.89435889  0.66685499  0.94844373    -0.20100
C2386       C  0.88087804  0.64453460  0.93225112     0.20100
C2387       C  0.86646116  0.61666581  0.94023344    -0.33100
C2388       C  0.85280536  0.59443386  0.92396274     0.00800
C2389       C  0.85409822  0.60010717  0.89945531    -0.24500
C2390       C  0.90154954  0.71158909  0.86823704    -0.29000
C2391       C  0.91417697  0.73376159  0.88471752     0.06500
C2392       C  0.91718972  0.72816183  0.90857312    -0.27700
H2393       H  0.87739673  0.66551044  0.84056290     0.11200
H2394       H  0.85704600  0.61701199  0.85411541     0.12400
H2395       H  0.91708005  0.71142486  0.95345438     0.11400
H2396       H  0.89467771  0.66285467  0.96729703     0.10700
H2397       H  0.86516629  0.61221041  0.95915402     0.16100
H2398       H  0.84301288  0.58291061  0.88698763     0.12000
H2399       H  0.89937891  0.71594791  0.84980197     0.14800
H2400       H  0.92674284  0.74525645  0.92131413     0.14600
C2401       C  0.84934324  0.44178737  0.85231068    -0.18300
C2402       C  0.85415165  0.43107035  0.83149607    -0.20400
C2403       C  0.84759131  0.43739655  0.80913903     0.20200
C2404       C  0.83680848  0.45533557  0.80764949    -0.03400
C2405       C  0.83133242  0.46560474  0.82868689    -0.06400
C2406       C  0.83751030  0.45865643  0.85111405     0.20500
C2407       C  0.81848675  0.48171891  0.82731319     0.18700
C2408       C  0.81244994  0.48849179  0.80492084    -0.17900
C2409       C  0.81826751  0.47867020  0.78404601    -0.20100
C2410       C  0.82995255  0.46166650  0.78523364     0.20100
C2411       C  0.83296207  0.44921508  0.76459083    -0.33100
C2412       C  0.84148639  0.42961962  0.76630800     0.00800
C2413       C  0.84972105  0.42453510  0.78842694    -0.24500
C2414       C  0.83068679  0.46773465  0.87196018    -0.29000
C2415       C  0.81675551  0.48266849  0.87067877     0.06500
C2416       C  0.81097800  0.48986969  0.84835335    -0.27700
H2417       H  0.85413390  0.43621697  0.86939272     0.11200
H2418       H  0.86241375  0.41732071  0.83291789     0.12400
H2419       H  0.80269829  0.50093545  0.80356257     0.11400
H2420       H  0.81278160  0.48361990  0.76699884     0.10700
H2421       H  0.82583357  0.45243286  0.74758235     0.16100
H2422       H  0.85575641  0.40896293  0.78969633     0.12000
H2423       H  0.83480467  0.46186199  0.88920963     0.14800
H2424       H  0.80024227  0.50142835  0.84741009     0.14600
C2425       C  0.99262642  0.38907694  0.72906818    -0.18300
C2426       C  0.96496615  0.37593070  0.72052938    -0.20400
C2427       C  0.94751399  0.38631825  0.72649810     0.20200
C2428       C  0.95801542  0.40978915  0.74181371    -0.03400
C2429       C  0.98575860  0.42288907  0.75053146    -0.06400
C2430       C  0.00340946  0.41282185  0.74386428     0.20500
C2431       C  0.99606423  0.44666556  0.76534644     0.18700
C2432       C  0.97864323  0.45678219  0.77186422    -0.17900
C2433       C  0.95134207  0.44392232  0.76323190    -0.20100
C2434       C  0.94104689  0.42073567  0.74797625     0.20100
C2435       C  0.91425908  0.40887339  0.73835027    -0.33100
C2436       C  0.90371293  0.38613540  0.72244583     0.00800
C2437       C  0.92011873  0.37430975  0.71703264    -0.24500
C2438       C  0.03169569  0.42737825  0.75137272    -0.29000
C2439       C  0.04223938  0.45191081  0.76522188     0.06500
C2440       C  0.02394720  0.46070720  0.77269850    -0.27700
H2441       H  0.00573363  0.38093560  0.72376128     0.11200
H2442       H  0.95740023  0.35792951  0.70887531     0.12400
H2443       H  0.98632294  0.47501199  0.78327432     0.11400
H2444       H  0.93841353  0.45241945  0.76816610     0.10700
H2445       H  0.90153668  0.41770356  0.74310429     0.16100
H2446       H  0.91205868  0.35665598  0.70492092     0.12000
H2447       H  0.04572338  0.42057286  0.74543476     0.14800
H2448       H  0.03180241  0.47939204  0.78358774     0.14600
C2449       C  0.80016121  0.37324911  0.94854883    -0.18300
C2450       C  0.78876020  0.34422760  0.94855707    -0.20400
C2451       C  0.76087946  0.32602620  0.95554766     0.20200
C2452       C  0.74463508  0.33721593  0.96350287    -0.03400
C2453       C  0.75618019  0.36649693  0.96360818    -0.06400
C2454       C  0.78390690  0.38458614  0.95558261     0.20500
C2455       C  0.73936434  0.37752429  0.97022799     0.18700
C2456       C  0.71170625  0.35940159  0.97777890    -0.17900
C2457       C  0.70026083  0.33041789  0.97761639    -0.20100
C2458       C  0.71632122  0.31912161  0.96993465     0.20100
C2459       C  0.70408660  0.29012337  0.96714110    -0.33100
C2460       C  0.71981465  0.27898138  0.95816919     0.00800
C2461       C  0.74845314  0.29688826  0.95332882    -0.24500
C2462       C  0.79413713  0.41339362  0.95315679    -0.29000
C2463       C  0.77673381  0.42400125  0.95824024     0.06500
C2464       C  0.74982133  0.40622335  0.96753907    -0.27700
H2465       H  0.82144622  0.38678968  0.94233179     0.11200
H2466       H  0.80148820  0.33597786  0.94237150     0.12400
H2467       H  0.69857575  0.36760074  0.98297407     0.11400
H2468       H  0.67855607  0.31680679  0.98270909     0.10700
H2469       H  0.68196022  0.27628293  0.97076894     0.16100
H2470       H  0.76045531  0.28831212  0.94602269     0.12000
H2471       H  0.81465675  0.42709204  0.94544083     0.14800
H2472       H  0.73629900  0.41449014  0.97103443     0.14600
C2473       C  0.76070319  0.23065102  0.79795802    -0.18300
C2474       C  0.75018291  0.21621945  0.81946295    -0.20400
C2475       C  0.75560672  0.23093457  0.84103575     0.20200
C2476       C  0.77312136  0.26042210  0.84109616    -0.03400
C2477       C  0.78358756  0.27498699  0.81939383    -0.06400
C2478       C  0.77675281  0.26003913  0.79765649     0.20500
C2479       C  0.79921384  0.30457619  0.81932193     0.18700
C2480       C  0.80575678  0.31925551  0.84098006    -0.17900
C2481       C  0.79541691  0.30483732  0.86246419    -0.20100
C2482       C  0.77835389  0.27553653  0.86259692     0.20100
C2483       C  0.76447662  0.26133707  0.88344165    -0.33100
C2484       C  0.74531230  0.23237313  0.88299696     0.00800
C2485       C  0.74195844  0.21700800  0.86215207    -0.24500
C2486       C  0.78462689  0.27480161  0.77599887    -0.29000
C2487       C  0.79859878  0.30415994  0.77594972     0.06500
C2488       C  0.80649100  0.31896152  0.79755401    -0.27700
H2489       H  0.75537755  0.21885818  0.78145747     0.11200
H2490       H  0.73688045  0.19361100  0.81910111     0.12400
H2491       H  0.81792427  0.34194094  0.84121742     0.11400
H2492       H  0.79973040  0.31668948  0.87885885     0.10700
H2493       H  0.76654978  0.27312222  0.89951122     0.16100
H2494       H  0.72664121  0.19473390  0.86179266     0.12000
H2495       H  0.77829971  0.26350904  0.75921766     0.14800
H2496       H  0.81712016  0.34164107  0.79734948     0.14600
C2497       C  0.73003538  0.06359158  0.94368487    -0.18300
C2498       C  0.71656142  0.07780317  0.95061018    -0.20400
C2499       C  0.70827320  0.09041509  0.93350904     0.20200
C2500       C  0.71322415  0.08832884  0.90912168    -0.03400
C2501       C  0.72741204  0.07452472  0.90217381    -0.06400
C2502       C  0.73585387  0.06209306  0.91956143     0.20500
C2503       C  0.73396028  0.07398029  0.87794221     0.18700
C2504       C  0.72533113  0.08627712  0.86080477    -0.17900
C2505       C  0.71075150  0.09942567  0.86762932    -0.20100
C2506       C  0.70486432  0.10085428  0.89175280     0.20100
C2507       C  0.69174942  0.11547667  0.89891566    -0.33100
C2508       C  0.68790544  0.11858985  0.92323091     0.00800
C2509       C  0.69600568  0.10587922  0.94041066    -0.24500
C2510       C  0.75085977  0.04931032  0.91261846    -0.29000
C2511       C  0.75851808  0.04983162  0.88867327     0.06500
C2512       C  0.74980627  0.06197741  0.87140397    -0.27700
H2513       H  0.73644711  0.05427186  0.95727107     0.11200
H2514       H  0.71287019  0.07916944  0.96938991     0.12400
H2515       H  0.73012858  0.08599215  0.84212336     0.11400
H2516       H  0.70459857  0.10900380  0.85407197     0.10700
H2517       H  0.68606318  0.12585446  0.88572137     0.16100
H2518       H  0.69329250  0.10859537  0.95916734     0.12000
H2519       H  0.75800965  0.04041072  0.92599833     0.14800
H2520       H  0.75584005  0.06250746  0.85293782     0.14600
C2521       C  0.66455373  0.29205059  0.67853238    -0.18300
C2522       C  0.63564662  0.27371234  0.67702529    -0.20400
C2523       C  0.62416900  0.24476893  0.67935030     0.20200
C2524       C  0.64205683  0.23404311  0.68206615    -0.03400
C2525       C  0.67131044  0.25264042  0.68383065    -0.06400
C2526       C  0.68240359  0.28174555  0.68258150     0.20500
C2527       C  0.68923262  0.24223757  0.68823534     0.18700
C2528       C  0.67772342  0.21314550  0.68949942    -0.17900
C2529       C  0.64869243  0.19466883  0.68769324    -0.20100
C2530       C  0.63060345  0.20493166  0.68461186     0.20100
C2531       C  0.60130783  0.18693778  0.68570890    -0.33100
C2532       C  0.58362062  0.19791533  0.68462061     0.00800
C2533       C  0.59511161  0.22661799  0.68066320    -0.24500
C2534       C  0.71089948  0.30017526  0.68682455    -0.29000
C2535       C  0.72864120  0.29018536  0.69296593     0.06500
C2536       C  0.71795821  0.26114286  0.69265720    -0.27700
H2537       H  0.67285911  0.31437685  0.67743430     0.11200
H2538       H  0.62220145  0.28223859  0.67482688     0.12400
H2539       H  0.69108115  0.20469667  0.69271053     0.11400
H2540       H  0.64030924  0.17239579  0.68958770     0.10700
H2541       H  0.59239798  0.16484433  0.68940160     0.16100
H2542       H  0.58144480  0.23505110  0.68031839     0.12000
H2543       H  0.71900958  0.32250979  0.68660952     0.14800
H2544       H  0.73149390  0.25327267  0.69731122     0.14600
C2545       C  0.54387972  0.11406102  0.84546839    -0.18300
C2546       C  0.52791342  0.10867307  0.82482434    -0.20400
C2547       C  0.54106828  0.11888140  0.80274152     0.20200
C2548       C  0.57059755  0.13374257  0.80124156    -0.03400
C2549       C  0.58669848  0.13970377  0.82214414    -0.06400
C2550       C  0.57321196  0.13004392  0.84436058     0.20500
C2551       C  0.61619270  0.15654400  0.82096278     0.18700
C2552       C  0.62933534  0.16605639  0.79875357    -0.17900
C2553       C  0.61337682  0.15985691  0.77796225    -0.20100
C2554       C  0.58402710  0.14425795  0.77909986     0.20100
C2555       C  0.56789020  0.14094996  0.75888307    -0.33100
C2556       C  0.53878584  0.12848998  0.76091029     0.00800
C2557       C  0.52533609  0.11648036  0.78251396    -0.24500
C2558       C  0.58921745  0.13758952  0.86520397    -0.29000
C2559       C  0.61844996  0.15545306  0.86426438     0.06500
C2560       C  0.63189371  0.16450297  0.84209022    -0.27700
H2561       H  0.53326226  0.10650775  0.86242877     0.11200
H2562       H  0.50529130  0.09721690  0.82622707     0.12400
H2563       H  0.65195034  0.17887712  0.79752998     0.11400
H2564       H  0.62396610  0.16812256  0.76110446     0.10700
H2565       H  0.57816318  0.15088025  0.74224740     0.16100
H2566       H  0.50289124  0.10743105  0.78399806     0.12000
H2567       H  0.57874019  0.13078490  0.88231340     0.14800
H2568       H  0.65446856  0.17821496  0.84134656     0.14600
C2569       C  0.40276102  0.96722897  0.70629858    -0.18300
C2570       C  0.41530270  0.99456439  0.69767298    -0.20400
C2571       C  0.41209052  0.01467410  0.70989719     0.20200
C2572       C  0.39508867  0.00695839  0.73046064    -0.03400
C2573       C  0.38237712  0.97927112  0.73919810    -0.06400
C2574       C  0.38681054  0.95959575  0.72727659     0.20500
C2575       C  0.36629111  0.97160967  0.76035818     0.18700
C2576       C  0.36244617  0.99163771  0.77211772    -0.17900
C2577       C  0.37514416  0.01916421  0.76347561    -0.20100
C2578       C  0.39189048  0.02719529  0.74287153     0.20100
C2579       C  0.40663004  0.05529243  0.73509756    -0.33100
C2580       C  0.42487391  0.06320335  0.71544425     0.00800
C2581       C  0.42679152  0.04265731  0.70258394    -0.24500
C2582       C  0.37624056  0.93296081  0.73703509    -0.29000
C2583       C  0.36113186  0.92546866  0.75847524     0.06500
C2584       C  0.35538375  0.94445664  0.76978778    -0.27700
H2585       H  0.40616288  0.95224033  0.69690885     0.11200
H2586       H  0.42819234  0.00018978  0.68178876     0.12400
H2587       H  0.35015468  0.98619902  0.78832548     0.11400
H2588       H  0.37239046  0.03434195  0.77323314     0.10700
H2589       H  0.40540434  0.07120715  0.74519462     0.16100
H2590       H  0.44086727  0.04878829  0.68742243     0.12000
H2591       H  0.38044496  0.91813584  0.72828291     0.14800
H2592       H  0.34376995  0.93861733  0.78638314     0.14600
C2593       C  0.57992190  0.33362599  0.67251500    -0.18300
C2594       C  0.56944664  0.30485798  0.67421366    -0.20400
C2595       C  0.54262916  0.28680283  0.68359255     0.20200
C2596       C  0.52565518  0.29756644  0.69034037    -0.03400
C2597       C  0.53621596  0.32662936  0.68858263    -0.06400
C2598       C  0.56373027  0.34480055  0.68013094     0.20500
C2599       C  0.51989758  0.33767865  0.69663096     0.18700
C2600       C  0.49281931  0.31948880  0.70546269    -0.17900
C2601       C  0.48231172  0.29067379  0.70709329    -0.20100
C2602       C  0.49871908  0.27953196  0.69999803     0.20100
C2603       C  0.48928823  0.25100183  0.70348637    -0.33100
C2604       C  0.50680022  0.24058728  0.69799909     0.00800
C2605       C  0.53307613  0.25844739  0.68744917    -0.24500
C2606       C  0.57520157  0.37390145  0.68096709    -0.29000
C2607       C  0.55950945  0.38494834  0.69011650     0.06500
C2608       C  0.53162865  0.36682433  0.69716607    -0.27700
H2609       H  0.60103011  0.34724632  0.66595460     0.11200
H2610       H  0.58267286  0.29683905  0.66886810     0.12400
H2611       H  0.48005536  0.32765209  0.71174934     0.11400
H2612       H  0.46161855  0.27719657  0.71453985     0.10700
H2613       H  0.46914162  0.23735949  0.71180955     0.16100
H2614       H  0.54656614  0.25043915  0.68306263     0.12000
H2615       H  0.59695115  0.38798746  0.67615468     0.14800
H2616       H  0.51984086  0.37549429  0.70475284     0.14600
C2617       C  0.75272732  0.55949973  0.82426071    -0.18300
C2618       C  0.73794470  0.55699641  0.80332935    -0.20400
C2619       C  0.70857613  0.54068873  0.80295477     0.20200
C2620       C  0.69388856  0.52781540  0.82417395    -0.03400
C2621       C  0.70876521  0.53047586  0.84528378    -0.06400
C2622       C  0.73837712  0.54584037  0.84519571     0.20500
C2623       C  0.69400257  0.51620545  0.86605016     0.18700
C2624       C  0.66465269  0.50054307  0.86593616    -0.17900
C2625       C  0.64993964  0.49778888  0.84501093    -0.20100
C2626       C  0.66438893  0.51073703  0.82394965     0.20100
C2627       C  0.64998571  0.50534325  0.80236313    -0.33100
C2628       C  0.66461931  0.51687890  0.78108094     0.00800
C2629       C  0.69371144  0.53543378  0.78148861    -0.24500
C2630       C  0.75297321  0.54566697  0.86554578    -0.29000
C2631       C  0.73810960  0.53000816  0.88559049     0.06500
C2632       C  0.70882194  0.51622680  0.88607558    -0.27700
H2633       H  0.77540428  0.57140259  0.82387566     0.11200
H2634       H  0.74953377  0.56702837  0.78721232     0.12400
H2635       H  0.65310432  0.48957099  0.88181124     0.11400
H2636       H  0.62731386  0.48474563  0.84509580     0.10700
H2637       H  0.62753894  0.49079918  0.80182216     0.16100
H2638       H  0.70492256  0.54383687  0.76487402     0.12000
H2639       H  0.77560019  0.55577998  0.86515068     0.14800
H2640       H  0.69753417  0.50386619  0.90155954     0.14600
C2641       C  0.69959746  0.38787477  0.68030109    -0.18300
C2642       C  0.68135129  0.39783124  0.68266537    -0.20400
C2643       C  0.69156868  0.42581179  0.68904789     0.20200
C2644       C  0.72055381  0.44428411  0.69229172    -0.03400
C2645       C  0.73904190  0.43417400  0.68995315    -0.06400
C2646       C  0.72834617  0.40570319  0.68433279     0.20500
C2647       C  0.76791032  0.45208393  0.69449127     0.18700
C2648       C  0.77812508  0.48028831  0.70029713    -0.17900
C2649       C  0.75979387  0.49038186  0.70240100    -0.20100
C2650       C  0.73085936  0.47243983  0.69890167     0.20100
C2651       C  0.71190442  0.48167735  0.70290505    -0.33100
C2652       C  0.68284821  0.46283120  0.70079455     0.00800
C2653       C  0.67307759  0.43521725  0.69319645    -0.24500
C2654       C  0.74622583  0.39507167  0.68428790    -0.29000
C2655       C  0.77457423  0.41228716  0.69007774     0.06500
C2656       C  0.78559693  0.44097962  0.69453824    -0.27700
H2657       H  0.69111078  0.36601197  0.67594434     0.11200
H2658       H  0.65910683  0.38343790  0.68005003     0.12400
H2659       H  0.80019759  0.49437585  0.70381176     0.11400
H2660       H  0.76817472  0.51205341  0.70742870     0.10700
H2661       H  0.71959754  0.50294082  0.70886089     0.16100
H2662       H  0.65075955  0.42060410  0.69125279     0.12000
H2663       H  0.73771410  0.37288079  0.68141219     0.14800
H2664       H  0.80736074  0.45408049  0.69967802     0.14600
C2665       C  0.52289417  0.54990864  0.77566340    -0.18300
C2666       C  0.53596707  0.53559976  0.76826763    -0.20400
C2667       C  0.55632520  0.54668178  0.75028148     0.20200
C2668       C  0.56400921  0.57266106  0.73981545    -0.03400
C2669       C  0.55072048  0.58720492  0.74733754    -0.06400
C2670       C  0.52997567  0.57554998  0.76521451     0.20500
C2671       C  0.55763354  0.61293275  0.73666353     0.18700
C2672       C  0.57815855  0.62391481  0.71865149    -0.17900
C2673       C  0.59140623  0.60947957  0.71119901    -0.20100
C2674       C  0.58441256  0.58369347  0.72155251     0.20100
C2675       C  0.59672422  0.56830183  0.71366352    -0.33100
C2676       C  0.58824805  0.54189730  0.72368271     0.00800
C2677       C  0.56847639  0.53169517  0.74222087    -0.24500
C2678       C  0.51596035  0.58919861  0.77196877    -0.29000
C2679       C  0.52191426  0.61438464  0.76114750     0.06500
C2680       C  0.54326352  0.62658997  0.74376312    -0.27700
H2681       H  0.50695950  0.54072798  0.78939695     0.11200
H2682       H  0.52988813  0.51564139  0.77643093     0.12400
H2683       H  0.58378389  0.64355494  0.71013695     0.11400
H2684       H  0.60691194  0.61835691  0.69713680     0.10700
H2685       H  0.61180117  0.57618689  0.69923180     0.16100
H2686       H  0.56201399  0.51147564  0.75011705     0.12000
H2687       H  0.49960497  0.57968257  0.78536721     0.14800
H2688       H  0.54770219  0.64579150  0.73507287     0.14600
C2689       C  0.47969587  0.17602012  0.84354368    -0.18300
C2690       C  0.47685671  0.18732045  0.86486756    -0.20400
C2691       C  0.45886039  0.19784387  0.86620665     0.20200
C2692       C  0.44222258  0.19540886  0.84637262    -0.03400
C2693       C  0.44498799  0.18383385  0.82482927    -0.06400
C2694       C  0.46451514  0.17499483  0.82325884     0.20500
C2695       C  0.42962559  0.18283876  0.80446798     0.18700
C2696       C  0.41068307  0.19222426  0.80623260    -0.17900
C2697       C  0.40809134  0.20388966  0.82754693    -0.20100
C2698       C  0.42427928  0.20625422  0.84756023     0.20100
C2699       C  0.42433585  0.22090407  0.86811538    -0.33100
C2700       C  0.44246392  0.22506090  0.88713427     0.00800
C2701       C  0.45874256  0.21251879  0.88642987    -0.24500
C2702       C  0.46990133  0.16706157  0.80110742    -0.29000
C2703       C  0.45590827  0.16759935  0.78051630     0.06500
C2704       C  0.43487676  0.17424655  0.78242409    -0.27700
H2705       H  0.49455954  0.16907511  0.84266763     0.11200
H2706       H  0.48960063  0.18887342  0.88003280     0.12400
H2707       H  0.39862452  0.19152906  0.79083797     0.11400
H2708       H  0.39411326  0.21193886  0.82811824     0.10700
H2709       H  0.41211676  0.23095342  0.86851366     0.16100
H2710       H  0.47285792  0.21592485  0.90106502     0.12000
H2711       H  0.48608305  0.16188609  0.79958957     0.14800
H2712       H  0.42427858  0.17490627  0.76646622     0.14600
C2713       C  0.52736034  0.44054467  0.82948711    -0.18300
C2714       C  0.51636310  0.42465983  0.85022290    -0.20400
C2715       C  0.50387789  0.39543172  0.84950437     0.20200
C2716       C  0.50119628  0.38190714  0.82753695    -0.03400
C2717       C  0.51159230  0.39786217  0.80653035    -0.06400
C2718       C  0.52560735  0.42740386  0.80767723     0.20500
C2719       C  0.50963386  0.38438833  0.78467076     0.18700
C2720       C  0.49671592  0.35512831  0.78387980    -0.17900
C2721       C  0.48689850  0.33937441  0.80479132    -0.20100
C2722       C  0.48949614  0.35260777  0.82673163     0.20100
C2723       C  0.48170208  0.33725118  0.84798793    -0.33100
C2724       C  0.48503485  0.35075951  0.86993792     0.00800
C2725       C  0.49527958  0.37966864  0.87052061    -0.24500
C2726       C  0.53943019  0.44323046  0.78740814    -0.29000
C2727       C  0.53874607  0.42979021  0.76606183     0.06500
C2728       C  0.52261253  0.40052465  0.76438749    -0.27700
H2729       H  0.53795209  0.46320164  0.83063791     0.11200
H2730       H  0.51852577  0.43529641  0.86694444     0.12400
H2731       H  0.49516333  0.34453946  0.76723308     0.11400
H2732       H  0.47783328  0.31688602  0.80387641     0.10700
H2733       H  0.47367013  0.31491104  0.84753158     0.16100
H2734       H  0.49811820  0.39016604  0.88746304     0.12000
H2735       H  0.55242071  0.46589666  0.78864308     0.14800
H2736       H  0.52286384  0.39031932  0.74800198     0.14600
C2737       C  0.52209431  0.17436002  0.94339139    -0.18300
C2738       C  0.50462189  0.18530420  0.94585882    -0.20400
C2739       C  0.51539995  0.21280399  0.95406432     0.20200
C2740       C  0.54393123  0.22927023  0.96037056    -0.03400
C2741       C  0.56154189  0.21821731  0.95792443    -0.06400
C2742       C  0.55063267  0.19071740  0.94910866     0.20500
C2743       C  0.59033356  0.23517055  0.96317408     0.18700
C2744       C  0.60109124  0.26258266  0.97157707    -0.17900
C2745       C  0.58365742  0.27355444  0.97392576    -0.20100
C2746       C  0.55520079  0.25726234  0.96793701     0.20100
C2747       C  0.53822997  0.26897801  0.96800664    -0.33100
C2748       C  0.51014707  0.25302386  0.96073357     0.00800
C2749       C  0.49855353  0.22465476  0.95473800    -0.24500
C2750       C  0.56872874  0.18061757  0.94509716    -0.29000
C2751       C  0.59749921  0.19793889  0.94938805     0.06500
C2752       C  0.60810367  0.22490038  0.95880170    -0.27700
H2753       H  0.51339937  0.15328909  0.93653097     0.11200
H2754       H  0.48280365  0.17247577  0.94080524     0.12400
H2755       H  0.62314585  0.27579345  0.97571032     0.11400
H2756       H  0.59259854  0.29503746  0.97978699     0.10700
H2757       H  0.54722449  0.29091543  0.97243323     0.16100
H2758       H  0.47703199  0.21246962  0.94868049     0.12000
H2759       H  0.56079442  0.16004042  0.93733838     0.14800
H2760       H  0.63044332  0.23828655  0.96172835     0.14600
C2761       C  0.63824642  0.39022307  0.97740308    -0.18300
C2762       C  0.60916399  0.37287608  0.97703681    -0.20400
C2763       C  0.59234276  0.38345494  0.96991301     0.20200
C2764       C  0.60470422  0.41210267  0.96426470    -0.03400
C2765       C  0.63411838  0.42970887  0.96486550    -0.06400
C2766       C  0.65091185  0.41844430  0.97081848     0.20500
C2767       C  0.64675880  0.45807882  0.95810589     0.18700
C2768       C  0.62976502  0.46877764  0.95164775    -0.17900
C2769       C  0.60055993  0.45121385  0.95077303    -0.20100
C2770       C  0.58783836  0.42267935  0.95651661     0.20100
C2771       C  0.55890330  0.40411326  0.95311976    -0.33100
C2772       C  0.54709820  0.37534790  0.95738569     0.00800
C2773       C  0.56361330  0.36541364  0.96668195    -0.24500
C2774       C  0.68004271  0.43508798  0.96872546    -0.29000
C2775       C  0.69272515  0.46289959  0.96087421     0.06500
C2776       C  0.67610042  0.47467127  0.95652772    -0.27700
H2777       H  0.65088383  0.38133917  0.98211565     0.11200
H2778       H  0.59987542  0.35090604  0.98143680     0.12400
H2779       H  0.63911758  0.49052938  0.94642356     0.11400
H2780       H  0.58802189  0.45973209  0.94488966     0.10700
H2781       H  0.54612021  0.41157331  0.94553364     0.16100
H2782       H  0.55435426  0.34310348  0.96964470     0.12000
H2783       H  0.69283559  0.42599434  0.97208321     0.14800
H2784       H  0.68583241  0.49606137  0.95014494     0.14600
C2785       C  0.33592069  0.24572960  0.86961098    -0.18300
C2786       C  0.30810325  0.23214823  0.86189762    -0.20400
C2787       C  0.28665520  0.22777560  0.87766340     0.20200
C2788       C  0.29329358  0.23748001  0.90137484    -0.03400
C2789       C  0.32133681  0.25080273  0.90927599    -0.06400
C2790       C  0.34271764  0.25491370  0.89328184     0.20500
C2791       C  0.32787024  0.25933046  0.93330243     0.18700
C2792       C  0.30643131  0.25520698  0.94897829    -0.17900
C2793       C  0.27868687  0.24237145  0.94104709    -0.20100
C2794       C  0.27183576  0.23319054  0.91735330     0.20100
C2795       C  0.24385372  0.21899233  0.90955022    -0.33100
C2796       C  0.23706391  0.20834651  0.88620760     0.00800
C2797       C  0.25861060  0.21312647  0.87031648    -0.24500
C2798       C  0.37039006  0.26745168  0.90140601    -0.29000
C2799       C  0.37677980  0.27515423  0.92540418     0.06500
C2800       C  0.35559243  0.27117492  0.94130170    -0.27700
H2801       H  0.35207750  0.24865301  0.85715049     0.11200
H2802       H  0.30332497  0.22482570  0.84363624     0.12400
H2803       H  0.31108532  0.26167963  0.96745083     0.11400
H2804       H  0.26249388  0.23919185  0.95357306     0.10700
H2805       H  0.22724630  0.21491435  0.92196752     0.16100
H2806       H  0.25343302  0.20486449  0.85232184     0.12000
H2807       H  0.38683407  0.27020624  0.88932733     0.14800
H2808       H  0.36069039  0.27699605  0.95987668     0.14600
C2809       C  0.84945023  0.49171718  0.07472576    -0.18300
C2810       C  0.84601979  0.49570408  0.05068817    -0.20400
C2811       C  0.83028255  0.50769041  0.04402098     0.20200
C2812       C  0.81809566  0.51606469  0.06167288    -0.03400
C2813       C  0.82200814  0.51252466  0.08596572    -0.06400
C2814       C  0.83748578  0.49996870  0.09248504     0.20500
C2815       C  0.81020293  0.52124947  0.10369351     0.18700
C2816       C  0.79438485  0.53317354  0.09698724    -0.17900
C2817       C  0.79006209  0.53619597  0.07286682    -0.20100
C2818       C  0.80177063  0.52766130  0.05505128     0.20100
C2819       C  0.79729888  0.53025564  0.03076241    -0.33100
C2820       C  0.80958875  0.52205358  0.01315258     0.00800
C2821       C  0.82624101  0.51107240  0.01997199    -0.24500
C2822       C  0.84053362  0.49566207  0.11662263    -0.29000
C2823       C  0.82901281  0.50448188  0.13431753     0.06500
C2824       C  0.81414839  0.51754636  0.12778266    -0.27700
H2825       H  0.86144724  0.48214182  0.07943025     0.11200
H2826       H  0.85544874  0.48913105  0.03727470     0.12400
H2827       H  0.78512305  0.53991046  0.11040286     0.11400
H2828       H  0.77754461  0.54519491  0.06814828     0.10700
H2829       H  0.78445467  0.53874138  0.02556202     0.16100
H2830       H  0.83545606  0.50433748  0.00646357     0.12000
H2831       H  0.85203698  0.48565329  0.12168343     0.14800
H2832       H  0.80493275  0.52404915  0.14146843     0.14600
C2833       C  0.00438181  0.60751333  0.21265520    -0.18300
C2834       C  0.97690534  0.59524183  0.20412918    -0.20400
C2835       C  0.95415573  0.57639424  0.21833982     0.20200
C2836       C  0.95919766  0.56996668  0.24145460    -0.03400
C2837       C  0.98696780  0.58190957  0.24986488    -0.06400
C2838       C  0.00966614  0.60088069  0.23543025     0.20500
C2839       C  0.99201634  0.57435287  0.27248109     0.18700
C2840       C  0.96930478  0.55541838  0.28666920    -0.17900
C2841       C  0.94180868  0.54397083  0.27852426    -0.20100
C2842       C  0.93653359  0.55101259  0.25593415     0.20100
C2843       C  0.90906032  0.53872569  0.24726709    -0.33100
C2844       C  0.90398054  0.54441898  0.22407484     0.00800
C2845       C  0.92653967  0.56322050  0.20964852    -0.24500
C2846       C  0.03723366  0.61226177  0.24375394    -0.29000
C2847       C  0.04242749  0.60421935  0.26599647     0.06500
C2848       C  0.01967547  0.58534448  0.28028442    -0.27700
H2849       H  0.02154636  0.62190458  0.20127982     0.11200
H2850       H  0.97345568  0.60040328  0.18634687     0.12400
H2851       H  0.97281377  0.54935322  0.30405289     0.11400
H2852       H  0.92465578  0.52928191  0.28977537     0.10700
H2853       H  0.89165449  0.52352377  0.25806688     0.16100
H2854       H  0.92258701  0.56705577  0.19154793     0.12000
H2855       H  0.05468111  0.62634684  0.23244957     0.14800
H2856       H  0.02353906  0.57892534  0.29737424     0.14600
C2857       C  0.42597725  0.16308483  0.59254900    -0.18300
C2858       C  0.42318987  0.16581076  0.56803626    -0.20400
C2859       C  0.43667999  0.15788340  0.55142122     0.20200
C2860       C  0.45274857  0.14664344  0.55966379    -0.03400
C2861       C  0.45562077  0.14395862  0.58438792    -0.06400
C2862       C  0.44239063  0.15247353  0.60091137     0.20500
C2863       C  0.47218833  0.13326607  0.59254332     0.18700
C2864       C  0.48532020  0.12491020  0.57598183    -0.17900
C2865       C  0.48244675  0.12752562  0.55153539    -0.20100
C2866       C  0.46638357  0.13853120  0.54323086     0.20100
C2867       C  0.46413146  0.14193987  0.51877226    -0.33100
C2868       C  0.44861342  0.15360527  0.51027913     0.00800
C2869       C  0.43474946  0.16135826  0.52677097    -0.24500
C2870       C  0.44635408  0.15085069  0.62546412    -0.29000
C2871       C  0.46349864  0.14092828  0.63372829     0.06500
C2872       C  0.47588975  0.13169305  0.61709080    -0.27700
H2873       H  0.41560429  0.16965309  0.60497790     0.11200
H2874       H  0.41069312  0.17438694  0.56208228     0.12400
H2875       H  0.49808085  0.11663356  0.58193864     0.11400
H2876       H  0.49302578  0.12118031  0.53911221     0.10700
H2877       H  0.47500650  0.13594133  0.50634066     0.16100
H2878       H  0.42278553  0.17039084  0.52047564     0.12000
H2879       H  0.43654503  0.15785202  0.63810376     0.14800
H2880       H  0.48904675  0.12393142  0.62320130     0.14600
C2881       C  0.30859501  0.05007337  0.42590386    -0.18300
C2882       C  0.28060643  0.03705133  0.41831469    -0.20400
C2883       C  0.27225503  0.05025644  0.40179989     0.20200
C2884       C  0.29264357  0.07638163  0.39218206    -0.03400
C2885       C  0.32080490  0.08947597  0.39980980    -0.06400
C2886       C  0.32882139  0.07657643  0.41713988     0.20500
C2887       C  0.34067346  0.11609588  0.39081149     0.18700
C2888       C  0.33274867  0.12890634  0.37364007    -0.17900
C2889       C  0.30496902  0.11601138  0.36614666    -0.20100
C2890       C  0.28471194  0.09010302  0.37569559     0.20100
C2891       C  0.25648698  0.07841000  0.36983905    -0.33100
C2892       C  0.23580666  0.05316841  0.38017365     0.00800
C2893       C  0.24382635  0.03857269  0.39551813    -0.24500
C2894       C  0.35651732  0.09103114  0.42608527    -0.29000
C2895       C  0.37576489  0.11831528  0.41807219     0.06500
C2896       C  0.36786141  0.13013095  0.39988486    -0.27700
H2897       H  0.31425905  0.03972024  0.43910449     0.11200
H2898       H  0.26534507  0.01695755  0.42584284     0.12400
H2899       H  0.34790184  0.14930058  0.36649389     0.11400
H2900       H  0.29917688  0.12667835  0.35336334     0.10700
H2901       H  0.25039999  0.08955496  0.35781798     0.16100
H2902       H  0.22790081  0.01913228  0.40358834     0.12000
H2903       H  0.36255267  0.08184236  0.44008150     0.14800
H2904       H  0.38280575  0.15098420  0.39336441     0.14600
C2905       C  0.42666338  0.27739920  0.07362113    -0.18300
C2906       C  0.42956493  0.28576352  0.09750017    -0.20400
C2907       C  0.44740298  0.31396666  0.10385191     0.20200
C2908       C  0.46236809  0.33401085  0.08600902    -0.03400
C2909       C  0.45906550  0.32564552  0.06186835    -0.06400
C2910       C  0.44128167  0.29714642  0.05564279     0.20500
C2911       C  0.47359827  0.34579493  0.04398476     0.18700
C2912       C  0.49166820  0.37394483  0.05035322    -0.17900
C2913       C  0.49534208  0.38213403  0.07430584    -0.20100
C2914       C  0.48077408  0.36236522  0.09228394     0.20100
C2915       C  0.48450890  0.37036070  0.11641062    -0.33100
C2916       C  0.46962630  0.35044518  0.13426823     0.00800
C2917       C  0.45085544  0.32237295  0.12777112    -0.24500
C2918       C  0.43834949  0.28898211  0.03156865    -0.29000
C2919       C  0.45221343  0.30914780  0.01370447     0.06500
C2920       C  0.46976874  0.33745476  0.02004272    -0.27700
H2921       H  0.41288734  0.25548660  0.06920536     0.11200
H2922       H  0.41800283  0.27010889  0.11104371     0.12400
H2923       H  0.50305323  0.38963628  0.03679032     0.11400
H2924       H  0.50954192  0.40395947  0.07876599     0.10700
H2925       H  0.49901255  0.39199191  0.12129573     0.16100
H2926       H  0.43956909  0.30678162  0.14145075     0.12000
H2927       H  0.42482902  0.26716301  0.02666733     0.14800
H2928       H  0.48080724  0.35298221  0.00625138     0.14600
C2929       C  0.66879285  0.40250855  0.17156606    -0.18300
C2930       C  0.63979537  0.39087344  0.17042337    -0.20400
C2931       C  0.62783561  0.40658533  0.17739645     0.20200
C2932       C  0.64541232  0.43480846  0.18438443    -0.03400
C2933       C  0.67473461  0.44658122  0.18555456    -0.06400
C2934       C  0.68632873  0.43008022  0.17965354     0.20500
C2935       C  0.69224753  0.47429717  0.19390691     0.18700
C2936       C  0.68030599  0.49026710  0.20010281    -0.17900
C2937       C  0.65127170  0.47863580  0.19886765    -0.20100
C2938       C  0.63360617  0.45078724  0.19145625     0.20100
C2939       C  0.60433268  0.43816666  0.19233188    -0.33100
C2940       C  0.58674598  0.40954558  0.18701772     0.00800
C2941       C  0.59862770  0.39412238  0.17884352    -0.24500
C2942       C  0.71499324  0.44086362  0.18322997    -0.29000
C2943       C  0.73229426  0.46791379  0.19255037     0.06500
C2944       C  0.72107309  0.48491283  0.19718089    -0.27700
H2945       H  0.67741841  0.38964767  0.16683723     0.11200
H2946       H  0.62666711  0.36929530  0.16477693     0.12400
H2947       H  0.69336154  0.51154804  0.20653552     0.11400
H2948       H  0.64255723  0.49118573  0.20438609     0.10700
H2949       H  0.59529199  0.45003566  0.19895997     0.16100
H2950       H  0.58517551  0.37209889  0.17470415     0.12000
H2951       H  0.72366027  0.42768492  0.17998399     0.14800
H2952       H  0.73433578  0.50555972  0.20484537     0.14600
C2953       C  0.46674348  0.31790402  0.34341896    -0.18300
C2954       C  0.46284229  0.30230760  0.36412971    -0.20400
C2955       C  0.45201293  0.27334014  0.36274870     0.20200
C2956       C  0.44358314  0.25970905  0.34042305    -0.03400
C2957       C  0.44711414  0.27537137  0.31960190    -0.06400
C2958       C  0.45965935  0.30475055  0.32102250     0.20500
C2959       C  0.43967457  0.26183568  0.29721671     0.18700
C2960       C  0.42797210  0.23275263  0.29589349    -0.17900
C2961       C  0.42502709  0.21734329  0.31643919    -0.20100
C2962       C  0.43334558  0.23072406  0.33866155     0.20100
C2963       C  0.43336104  0.21601682  0.35884424    -0.33100
C2964       C  0.44308112  0.22979261  0.38077044     0.00800
C2965       C  0.45125105  0.25810479  0.38294710    -0.24500
C2966       C  0.46634572  0.32052848  0.29995352    -0.29000
C2967       C  0.46008925  0.30715924  0.27762600     0.06500
C2968       C  0.44563697  0.27779046  0.27642723    -0.27700
H2969       H  0.47615468  0.34039727  0.34484814     0.11200
H2970       H  0.46933251  0.31307764  0.38111490     0.12400
H2971       H  0.42211813  0.22207715  0.27883036     0.11400
H2972       H  0.41701114  0.19509512  0.31485107     0.10700
H2973       H  0.42740622  0.19423155  0.35725325     0.16100
H2974       H  0.45932874  0.26878197  0.39982859     0.12000
H2975       H  0.47731253  0.34320798  0.30085634     0.14800
H2976       H  0.44093234  0.26746891  0.25919384     0.14600
C2977       C  0.38185364  0.43476832  0.20263795    -0.18300
C2978       C  0.39505635  0.42042427  0.19531721    -0.20400
C2979       C  0.40343187  0.40756149  0.21210026     0.20200
C2980       C  0.39787574  0.40861371  0.23650479    -0.03400
C2981       C  0.38506755  0.42366060  0.24396248    -0.06400
C2982       C  0.37709799  0.43685796  0.22691773     0.20500
C2983       C  0.38108659  0.42626628  0.26847269     0.18700
C2984       C  0.38877286  0.41272259  0.28520175    -0.17900
C2985       C  0.40092285  0.39733645  0.27778133    -0.20100
C2986       C  0.40601220  0.39550262  0.25349807     0.20100
C2987       C  0.42010280  0.38185023  0.24596117    -0.33100
C2988       C  0.42699220  0.38207772  0.22176064     0.00800
C2989       C  0.41819544  0.39461395  0.20496511    -0.24500
C2990       C  0.36534626  0.45263598  0.23447342    -0.29000
C2991       C  0.36245101  0.45631838  0.25886741     0.06500
C2992       C  0.37024397  0.44299061  0.27578939    -0.27700
H2993       H  0.37591195  0.44478079  0.18930885     0.11200
H2994       H  0.39907024  0.41971690  0.17649699     0.12400
H2995       H  0.38572408  0.41433103  0.30407893     0.11400
H2996       H  0.40699322  0.38745076  0.29111261     0.10700
H2997       H  0.42722677  0.37260552  0.25902154     0.16100
H2998       H  0.42353478  0.39489286  0.18632422     0.12000
H2999       H  0.35974831  0.46324531  0.22143313     0.14800
H3000       H  0.36810528  0.44590198  0.29461534     0.14600
C3001       C  0.75632651  0.66540067  0.37074571    -0.18300
C3002       C  0.74395454  0.63797372  0.37905739    -0.20400
C3003       C  0.72256786  0.62791155  0.39615196     0.20200
C3004       C  0.71270723  0.64519291  0.40432345    -0.03400
C3005       C  0.72536097  0.67306444  0.39598600    -0.06400
C3006       C  0.74755882  0.68320475  0.37945186     0.20500
C3007       C  0.71662918  0.69106434  0.40485825     0.18700
C3008       C  0.69440763  0.68044496  0.42129570    -0.17900
C3009       C  0.68163859  0.65265277  0.42940300    -0.20100
C3010       C  0.69095823  0.63494808  0.42139053     0.20100
C3011       C  0.67972001  0.60760326  0.43063797    -0.33100
C3012       C  0.69072078  0.59100870  0.42338930     0.00800
C3013       C  0.71159545  0.60115120  0.40573778    -0.24500
C3014       C  0.76158511  0.71132604  0.37269656    -0.29000
C3015       C  0.75432460  0.72994481  0.38244043     0.06500
C3016       C  0.73114317  0.71955001  0.39792485    -0.27700
H3017       H  0.77329639  0.67292977  0.35795751     0.11200
H3018       H  0.75155808  0.62481464  0.37251081     0.12400
H3019       H  0.68727236  0.69380125  0.42826948     0.11400
H3020       H  0.66492657  0.64523249  0.44240537     0.10700
H3021       H  0.66345771  0.59977540  0.44409881     0.16100
H3022       H  0.71968183  0.58819767  0.39965501     0.12000
H3023       H  0.77925077  0.71914146  0.36057751     0.14800
H3024       H  0.72554531  0.73382767  0.40560460     0.14600
C3025       C  0.69242087  0.53004599  0.57120032    -0.18300
C3026       C  0.68660818  0.52719190  0.59563699    -0.20400
C3027       C  0.65906262  0.51598148  0.60384129     0.20200
C3028       C  0.63712391  0.50758627  0.58733260    -0.03400
C3029       C  0.64300485  0.51051496  0.56266588    -0.06400
C3030       C  0.67079395  0.52176832  0.55454886     0.20500
C3031       C  0.62105437  0.50197426  0.54615239     0.18700
C3032       C  0.59348662  0.49068887  0.55435925    -0.17900
C3033       C  0.58765830  0.48775245  0.57880022    -0.20100
C3034       C  0.60930504  0.49608550  0.59544490     0.20100
C3035       C  0.60361760  0.49294134  0.62001858    -0.33100
C3036       C  0.62542663  0.50122134  0.63657614     0.00800
C3037       C  0.65309675  0.51283630  0.62827112    -0.24500
C3038       C  0.67641632  0.52424904  0.52995527    -0.29000
C3039       C  0.65456840  0.51547516  0.51337316     0.06500
C3040       C  0.62697263  0.50455612  0.52170589    -0.27700
H3041       H  0.71384589  0.53866970  0.56532173     0.11200
H3042       H  0.70367345  0.53368538  0.60813580     0.12400
H3043       H  0.57639559  0.48400740  0.54185849     0.11400
H3044       H  0.56620421  0.47888549  0.58467752     0.10700
H3045       H  0.58225414  0.48391324  0.62621643     0.16100
H3046       H  0.67009609  0.51917727  0.64083095     0.12000
H3047       H  0.69768079  0.53253141  0.52374559     0.14800
H3048       H  0.60990554  0.49770995  0.50913598     0.14600
C3049       C  0.74916640  0.53686923  0.29510655    -0.18300
C3050       C  0.73703109  0.54045703  0.31553880    -0.20400
C3051       C  0.74318704  0.53416629  0.33806577     0.20200
C3052       C  0.76239027  0.52495945  0.34015316    -0.03400
C3053       C  0.77400500  0.52057240  0.31948421    -0.06400
C3054       C  0.76720073  0.52644145  0.29688804     0.20500
C3055       C  0.79128395  0.50903124  0.32135122     0.18700
C3056       C  0.79800738  0.50347137  0.34396000    -0.17900
C3057       C  0.78695336  0.50838133  0.36452094    -0.20100
C3058       C  0.76868207  0.51854694  0.36276810     0.20100
C3059       C  0.75502830  0.52048276  0.38300930    -0.33100
C3060       C  0.73429877  0.52738983  0.38062851     0.00800
C3061       C  0.72907401  0.53508908  0.35834695    -0.24500
C3062       C  0.77750466  0.52057942  0.27639410    -0.29000
C3063       C  0.79342711  0.50773791  0.27808082     0.06500
C3064       C  0.80057073  0.50226636  0.30054904    -0.27700
H3065       H  0.74373185  0.54139055  0.27783830     0.11200
H3066       H  0.72236321  0.54755222  0.31368316     0.12400
H3067       H  0.81136352  0.49477433  0.34572016     0.11400
H3068       H  0.79190462  0.50328798  0.38174760     0.10700
H3069       H  0.75840760  0.51385140  0.40020953     0.16100
H3070       H  0.71272102  0.54000279  0.35663549     0.12000
H3071       H  0.77168488  0.52443914  0.25899915     0.14800
H3072       H  0.81291180  0.49237735  0.30177255     0.14600
C3073       C  0.61527557  0.48032701  0.28365666    -0.18300
C3074       C  0.62923239  0.49090711  0.30529784    -0.20400
C3075       C  0.61400403  0.48652995  0.32641033     0.20200
C3076       C  0.58450012  0.47283264  0.32556142    -0.03400
C3077       C  0.57041486  0.46210163  0.30373048    -0.06400
C3078       C  0.58591107  0.46520594  0.28284794     0.20500
C3079       C  0.54082456  0.44652883  0.30313662     0.18700
C3080       C  0.52568266  0.44312025  0.32412790    -0.17900
C3081       C  0.53965442  0.45390526  0.34575854    -0.20100
C3082       C  0.56898883  0.46816089  0.34676565     0.20100
C3083       C  0.58299862  0.47619167  0.36872940    -0.33100
C3084       C  0.61207435  0.48802931  0.36963011     0.00800
C3085       C  0.62759244  0.49392735  0.34851598    -0.24500
C3086       C  0.57177739  0.45133066  0.26198742    -0.29000
C3087       C  0.54247319  0.43440703  0.26178548     0.06500
C3088       C  0.52698740  0.43294392  0.28199542    -0.27700
H3089       H  0.62742019  0.48298516  0.26772909     0.11200
H3090       H  0.65187103  0.50155587  0.30566785     0.12400
H3091       H  0.50299073  0.43127890  0.32396710     0.11400
H3092       H  0.52746730  0.45020386  0.36185976     0.10700
H3093       H  0.57117012  0.47136140  0.38519830     0.16100
H3094       H  0.65005933  0.50289960  0.34944961     0.12000
H3095       H  0.58358956  0.45189583  0.24640335     0.14800
H3096       H  0.50438883  0.41926904  0.28186149     0.14600
C3097       C  0.49967034  0.33480654  0.44731353    -0.18300
C3098       C  0.51754685  0.36387060  0.44558317    -0.20400
C3099       C  0.54572935  0.37659346  0.45241648     0.20200
C3100       C  0.55563948  0.35992264  0.46210794    -0.03400
C3101       C  0.53762639  0.33062690  0.46386797    -0.06400
C3102       C  0.50967228  0.31797857  0.45593405     0.20500
C3103       C  0.54814963  0.31384461  0.47198315     0.18700
C3104       C  0.57607162  0.32657569  0.47948998    -0.17900
C3105       C  0.59385586  0.35559023  0.47787979    -0.20100
C3106       C  0.58400861  0.37227537  0.46863687     0.20100
C3107       C  0.60246783  0.40078432  0.46438398    -0.33100
C3108       C  0.59317494  0.41714696  0.45336403     0.00800
C3109       C  0.56458000  0.40530083  0.44834973    -0.24500
C3110       C  0.49291036  0.28867795  0.45511819    -0.29000
C3111       C  0.50400234  0.27207794  0.46163073     0.06500
C3112       C  0.53121645  0.28459973  0.47075759    -0.27700
H3113       H  0.47826927  0.32538910  0.44113462     0.11200
H3114       H  0.50955266  0.37629593  0.43814298     0.12400
H3115       H  0.58441931  0.31400748  0.48580822     0.11400
H3116       H  0.61561084  0.36486917  0.48301775     0.10700
H3117       H  0.62452653  0.40998711  0.46843097     0.16100
H3118       H  0.55743297  0.41786071  0.43969163     0.12000
H3119       H  0.47209167  0.27881036  0.44743674     0.14800
H3120       H  0.53984279  0.27164323  0.47513594     0.14600
C3121       C  0.82986274  0.37966166  0.55008491    -0.18300
C3122       C  0.83349818  0.38573923  0.57450677    -0.20400
C3123       C  0.82889199  0.36496379  0.59108550     0.20200
C3124       C  0.82043161  0.33773447  0.58289122    -0.03400
C3125       C  0.81671936  0.33157740  0.55821385    -0.06400
C3126       C  0.82154480  0.35268623  0.54177030     0.20500
C3127       C  0.80811008  0.30430838  0.55002947     0.18700
C3128       C  0.80337363  0.28349609  0.56661504    -0.17900
C3129       C  0.80703695  0.28958249  0.59103585    -0.20100
C3130       C  0.81550361  0.31660106  0.59934056     0.20100
C3131       C  0.81879379  0.32272655  0.62382182    -0.33100
C3132       C  0.82698106  0.34975915  0.63225870     0.00800
C3133       C  0.83225557  0.37084503  0.61568704    -0.24500
C3134       C  0.81799506  0.34649572  0.51730479    -0.29000
C3135       C  0.80947080  0.31937930  0.50889709     0.06500
C3136       C  0.80440908  0.29834256  0.52544986    -0.27700
H3137       H  0.83358713  0.39610221  0.53767823     0.11200
H3138       H  0.83989714  0.40671378  0.58042820     0.12400
H3139       H  0.79678583  0.26247137  0.56070581     0.11400
H3140       H  0.80314582  0.27309930  0.60345116     0.10700
H3141       H  0.81465985  0.30626165  0.63635087     0.16100
H3142       H  0.83833594  0.39162958  0.62194420     0.12000
H3143       H  0.82173467  0.36285368  0.50478463     0.14800
H3144       H  0.79785277  0.27743604  0.51920776     0.14600
C3145       C  0.87374803  0.44664822  0.31968775    -0.18300
C3146       C  0.87135454  0.43219005  0.34079818    -0.20400
C3147       C  0.85515683  0.40281446  0.34146282     0.20200
C3148       C  0.84257496  0.38779053  0.32028355    -0.03400
C3149       C  0.84509123  0.40235961  0.29898212    -0.06400
C3150       C  0.86007240  0.43197318  0.29885541     0.20500
C3151       C  0.83082244  0.38728648  0.27830805     0.18700
C3152       C  0.81563925  0.35790525  0.27863706    -0.17900
C3153       C  0.81307615  0.34349563  0.29973206    -0.20100
C3154       C  0.82569090  0.35827246  0.32077478     0.20100
C3155       C  0.81992584  0.34421631  0.34259893    -0.33100
C3156       C  0.83083505  0.35923502  0.36386194     0.00800
C3157       C  0.84951356  0.38830781  0.36317959    -0.24500
C3158       C  0.85930892  0.44624112  0.27848429    -0.29000
C3159       C  0.84333557  0.43108944  0.25863078     0.06500
C3160       C  0.83015177  0.40179852  0.25825895    -0.27700
H3161       H  0.88542944  0.46934424  0.31989293     0.11200
H3162       H  0.88123361  0.44404198  0.35685398     0.12400
H3163       H  0.80473777  0.34609268  0.26284480     0.11400
H3164       H  0.80023686  0.32083598  0.29982191     0.10700
H3165       H  0.80538113  0.32176788  0.34330767     0.16100
H3166       H  0.85755756  0.39981870  0.37972742     0.12000
H3167       H  0.86901405  0.46883852  0.27883048     0.14800
H3168       H  0.81756720  0.39023568  0.24295503     0.14600
C3169       C  0.63024076  0.18573709  0.43106234    -0.18300
C3170       C  0.60117587  0.17395465  0.43116583    -0.20400
C3171       C  0.58927042  0.18797207  0.44218684     0.20200
C3172       C  0.60685190  0.21369051  0.45398754    -0.03400
C3173       C  0.63619277  0.22557343  0.45391612    -0.06400
C3174       C  0.64791495  0.21172953  0.44201608     0.20500
C3175       C  0.65385284  0.25199393  0.46464600     0.18700
C3176       C  0.64194055  0.26573300  0.47612152    -0.17900
C3177       C  0.61289420  0.25399159  0.47615655    -0.20100
C3178       C  0.59527236  0.22831958  0.46470089     0.20100
C3179       C  0.56652724  0.21794436  0.46244522    -0.33100
C3180       C  0.54916690  0.19324241  0.44949775     0.00800
C3181       C  0.56038841  0.17767504  0.44031983    -0.24500
C3182       C  0.67711078  0.22478400  0.44025233    -0.29000
C3183       C  0.69467294  0.25155171  0.44993483     0.06500
C3184       C  0.68307178  0.26483015  0.46259583    -0.27700
H3185       H  0.63894778  0.17485847  0.42187000     0.11200
H3186       H  0.58805788  0.15424183  0.42201500     0.12400
H3187       H  0.65513774  0.28596268  0.48446560     0.11400
H3188       H  0.60427260  0.26543486  0.48449667     0.10700
H3189       H  0.55788875  0.23000647  0.46950898     0.16100
H3190       H  0.54713542  0.15885930  0.43004977     0.12000
H3191       H  0.68621199  0.21472536  0.43040037     0.14800
H3192       H  0.69671441  0.28572757  0.46965447     0.14600
C3193       C  0.69355435  0.38631067  0.46401490    -0.18300
C3194       C  0.70476784  0.36912119  0.46162722    -0.20400
C3195       C  0.73329730  0.38075523  0.45650858     0.20200
C3196       C  0.75102012  0.41003365  0.45469409    -0.03400
C3197       C  0.73971893  0.42746622  0.45735748    -0.06400
C3198       C  0.71073908  0.41542164  0.46153650     0.20500
C3199       C  0.75705586  0.45673098  0.45451660     0.18700
C3200       C  0.78571268  0.46829333  0.44980784    -0.17900
C3201       C  0.79691185  0.45097959  0.44713725    -0.20100
C3202       C  0.77967935  0.42175169  0.44910761     0.20100
C3203       C  0.79015310  0.40394700  0.44444909    -0.33100
C3204       C  0.77207882  0.37467652  0.44502905     0.00800
C3205       C  0.74400296  0.36343445  0.45199026    -0.24500
C3206       C  0.69912561  0.43246821  0.46172742    -0.29000
C3207       C  0.71599199  0.46138484  0.45787680     0.06500
C3208       C  0.74506347  0.47360069  0.45497564    -0.27700
H3209       H  0.67129326  0.37677213  0.46723906     0.11200
H3210       H  0.69094314  0.34662928  0.46308717     0.12400
H3211       H  0.79934374  0.49070069  0.44754085     0.11400
H3212       H  0.81893384  0.46042163  0.44290770     0.10700
H3213       H  0.81179072  0.41275807  0.43909315     0.16100
H3214       H  0.72999017  0.34089933  0.45285507     0.12000
H3215       H  0.67662758  0.42302929  0.46327695     0.14800
H3216       H  0.75790108  0.49580850  0.45117614     0.14600
C3217       C  0.87030706  0.20447580  0.43949021    -0.18300
C3218       C  0.85778675  0.21930708  0.44700519    -0.20400
C3219       C  0.86380290  0.24405768  0.43541062     0.20200
C3220       C  0.88323973  0.25449354  0.41646871    -0.03400
C3221       C  0.89603742  0.23950823  0.40890967    -0.06400
C3222       C  0.88913248  0.21420250  0.42031044     0.20500
C3223       C  0.91507047  0.24936564  0.38960704     0.18700
C3224       C  0.92125438  0.27438653  0.37825190    -0.17900
C3225       C  0.90836313  0.28914501  0.38563161    -0.20100
C3226       C  0.88910802  0.27929007  0.40461325     0.20100
C3227       C  0.87469851  0.29296311  0.41134114    -0.33100
C3228       C  0.85433263  0.28171394  0.42952644     0.00800
C3229       C  0.84969630  0.25776797  0.44181028    -0.24500
C3230       C  0.90058444  0.19860786  0.41203343    -0.29000
C3231       C  0.91919535  0.20787264  0.39264703     0.06500
C3232       C  0.92691632  0.23361736  0.38173817    -0.27700
H3233       H  0.86491853  0.18512208  0.44846111     0.11200
H3234       H  0.84291497  0.21108482  0.46159369     0.12400
H3235       H  0.93574794  0.28233490  0.36340366     0.11400
H3236       H  0.91316878  0.30807762  0.37625272     0.10700
H3237       H  0.87801980  0.31116492  0.40155637     0.16100
H3238       H  0.83395848  0.24900205  0.45576158     0.12000
H3239       H  0.89476928  0.17888975  0.42060073     0.14800
H3240       H  0.94114011  0.24074174  0.36668662     0.14600
C3241       C  0.58718387  0.14333119  0.07073912    -0.18300
C3242       C  0.59488184  0.14693950  0.04668549    -0.20400
C3243       C  0.62144789  0.15244340  0.03980221     0.20200
C3244       C  0.64040893  0.15410182  0.05726762    -0.03400
C3245       C  0.63243315  0.14994800  0.08151102    -0.06400
C3246       C  0.60580211  0.14485723  0.08829504     0.20500
C3247       C  0.65125218  0.15132409  0.09896491     0.18700
C3248       C  0.67781875  0.15677441  0.09205865    -0.17900
C3249       C  0.68589397  0.16133856  0.06807035    -0.20100
C3250       C  0.66742995  0.16021762  0.05054239     0.20100
C3251       C  0.67548214  0.16521371  0.02644948    -0.33100
C3252       C  0.65647534  0.16318444  0.00905575     0.00800
C3253       C  0.62946688  0.15653582  0.01578233    -0.24500
C3254       C  0.59844812  0.14190155  0.11251841    -0.29000
C3255       C  0.61724481  0.14366107  0.13006202     0.06500
C3256       C  0.64342796  0.14787203  0.12305925    -0.27700
H3257       H  0.56666581  0.13941925  0.07562303     0.11200
H3258       H  0.58012850  0.14567803  0.03346128     0.12400
H3259       H  0.69251531  0.15790151  0.10526332     0.11400
H3260       H  0.70662929  0.16584447  0.06323816     0.10700
H3261       H  0.69626029  0.17019788  0.02115054     0.16100
H3262       H  0.61491307  0.15519452  0.00228096     0.12000
H3263       H  0.57823728  0.13860954  0.11773233     0.14800
H3264       H  0.65818346  0.14945186  0.13643695     0.14600
C3265       C  0.58776005  0.28400087  0.17740239    -0.18300
C3266       C  0.57560395  0.30044102  0.17883217    -0.20400
C3267       C  0.54641300  0.28782599  0.18014651     0.20200
C3268       C  0.52913300  0.25848208  0.17848789    -0.03400
C3269       C  0.54143544  0.24184277  0.17699287    -0.06400
C3270       C  0.57088092  0.25469018  0.17726648     0.20500
C3271       C  0.52432814  0.21237930  0.17692460     0.18700
C3272       C  0.49506946  0.19990945  0.17693002    -0.17900
C3273       C  0.48286699  0.21641422  0.17851351    -0.20100
C3274       C  0.49969357  0.24570893  0.18005051     0.20100
C3275       C  0.48787354  0.26232143  0.18479337    -0.33100
C3276       C  0.50538061  0.29131874  0.18830584     0.00800
C3277       C  0.53438466  0.30394039  0.18486429    -0.24500
C3278       C  0.58293352  0.23809779  0.17916222    -0.29000
C3279       C  0.56599661  0.20879723  0.18101661     0.06500
C3280       C  0.53675344  0.19599944  0.17859837    -0.27700
H3281       H  0.61036866  0.29418640  0.17743564     0.11200
H3282       H  0.58907404  0.32298739  0.17998866     0.12400
H3283       H  0.48159758  0.17730889  0.17672164     0.11400
H3284       H  0.46027695  0.20618924  0.17948490     0.10700
H3285       H  0.46551379  0.25254021  0.18760503     0.16100
H3286       H  0.54784165  0.32629443  0.18755014     0.12000
H3287       H  0.60545483  0.24812383  0.18079016     0.14800
H3288       H  0.52352380  0.17342703  0.18003452     0.14600
C3289       C  0.73753533  0.22075716  0.29012007    -0.18300
C3290       C  0.75402307  0.23202251  0.31050639    -0.20400
C3291       C  0.74162334  0.22587105  0.33317038     0.20200
C3292       C  0.71244090  0.20730996  0.33541028    -0.03400
C3293       C  0.69568627  0.19659831  0.31478701    -0.06400
C3294       C  0.70834492  0.20363164  0.29206768     0.20500
C3295       C  0.66622242  0.18017680  0.31686090     0.18700
C3296       C  0.65397199  0.17312189  0.33960578    -0.17900
C3297       C  0.67064287  0.18326569  0.36008969    -0.20100
C3298       C  0.69980796  0.20094851  0.35816083     0.20100
C3299       C  0.71627537  0.21411953  0.37837604    -0.33100
C3300       C  0.74475416  0.23460705  0.37591230     0.00800
C3301       C  0.75753881  0.23957716  0.35343670    -0.24500
C3302       C  0.69154629  0.19463456  0.27165810    -0.29000
C3303       C  0.66222594  0.17983828  0.27356848     0.06500
C3304       C  0.64959847  0.17222506  0.29617704    -0.27700
H3305       H  0.74751834  0.22630883  0.27277434     0.11200
H3306       H  0.77639474  0.24615874  0.30850806     0.12400
H3307       H  0.63143259  0.16035758  0.34155251     0.11400
H3308       H  0.66061385  0.17820798  0.37741836     0.10700
H3309       H  0.70635612  0.21072038  0.39563856     0.16100
H3310       H  0.77943774  0.25570008  0.35153265     0.12000
H3311       H  0.70130727  0.20071626  0.25422137     0.14800
H3312       H  0.62695767  0.16064447  0.29762959     0.14600
C3313       C  0.48546925  0.17285421  0.30285662    -0.18300
C3314       C  0.49632776  0.17069148  0.28105385    -0.20400
C3315       C  0.50669925  0.15266098  0.27859761     0.20200
C3316       C  0.50432049  0.13513417  0.29770762    -0.03400
C3317       C  0.49323114  0.13723472  0.31972144    -0.06400
C3318       C  0.48476025  0.15694980  0.32246912     0.20500
C3319       C  0.49250825  0.12111001  0.33941285     0.18700
C3320       C  0.50146038  0.10194112  0.33646867    -0.17900
C3321       C  0.51263808  0.09999020  0.31466295    -0.20100
C3322       C  0.51493953  0.11708603  0.29538847     0.20100
C3323       C  0.52949329  0.11806388  0.27453584    -0.33100
C3324       C  0.53387174  0.13727275  0.25643722     0.00800
C3325       C  0.52137566  0.15350518  0.25807409    -0.24500
C3326       C  0.47756510  0.16180255  0.34511183    -0.29000
C3327       C  0.47848964  0.14709294  0.36498299     0.06500
C3328       C  0.48467976  0.12586986  0.36197915    -0.27700
H3329       H  0.47872828  0.18782589  0.30465555     0.11200
H3330       H  0.49780017  0.18406850  0.26644677     0.12400
H3331       H  0.50090061  0.08927474  0.35132994     0.11400
H3332       H  0.52048788  0.08589270  0.31317052     0.10700
H3333       H  0.53944278  0.10578340  0.27328350     0.16100
H3334       H  0.52492539  0.16835513  0.24404435     0.12000
H3335       H  0.47265203  0.17809112  0.34756555     0.14800
H3336       H  0.48552588  0.11469350  0.37744629     0.14600
C3337       C  0.77787511  0.32373989  0.18947360    -0.18300
C3338       C  0.76007825  0.29458171  0.19032527    -0.20400
C3339       C  0.73130584  0.28223472  0.18587486     0.20200
C3340       C  0.72063997  0.29942636  0.17935130    -0.03400
C3341       C  0.73853519  0.32880978  0.17865171    -0.06400
C3342       C  0.76718798  0.34105910  0.18425925     0.20500
C3343       C  0.72735441  0.34596313  0.17390889     0.18700
C3344       C  0.69882963  0.33366253  0.16852495    -0.17900
C3345       C  0.68115025  0.30458895  0.16908748    -0.20100
C3346       C  0.69173207  0.28742570  0.17511689     0.20100
C3347       C  0.67360037  0.25872001  0.17863475    -0.33100
C3348       C  0.68379460  0.24187848  0.18666529     0.00800
C3349       C  0.71271102  0.25335064  0.18941456    -0.24500
C3350       C  0.78413522  0.37033212  0.18616376    -0.29000
C3351       C  0.77247660  0.38726606  0.18329832     0.06500
C3352       C  0.74441385  0.37505923  0.17624451    -0.27700
H3353       H  0.79983020  0.33280016  0.19378222     0.11200
H3354       H  0.76866048  0.28176154  0.19526554     0.12400
H3355       H  0.69000104  0.34655418  0.16474230     0.11400
H3356       H  0.65899436  0.29559199  0.16571886     0.10700
H3357       H  0.65121011  0.24971567  0.17676679     0.16100
H3358       H  0.72041002  0.24032347  0.19602989     0.12000
H3359       H  0.80572309  0.37970638  0.19188751     0.14800
H3360       H  0.73544162  0.38811048  0.17399768     0.14600
C3361       C  0.59654748  0.01637678  0.23231611    -0.18300
C3362       C  0.58297434  0.98856507  0.24030614    -0.20400
C3363       C  0.55504895  0.97503135  0.24813659     0.20200
C3364       C  0.54079833  0.98984099  0.24810658    -0.03400
C3365       C  0.55428922  0.01765749  0.23967281    -0.06400
C3366       C  0.58233785  0.03105833  0.23171729     0.20500
C3367       C  0.53951997  0.03190151  0.23889578     0.18700
C3368       C  0.51185020  0.01871925  0.24716180    -0.17900
C3369       C  0.49865433  0.99136797  0.25581616    -0.20100
C3370       C  0.51287129  0.97673754  0.25616548     0.20100
C3371       C  0.49939714  0.94906279  0.26411647    -0.33100
C3372       C  0.51308979  0.93383273  0.26376404     0.00800
C3373       C  0.54097500  0.94692320  0.25573650    -0.24500
C3374       C  0.59537498  0.05865677  0.22293972    -0.29000
C3375       C  0.58021924  0.07234660  0.22133053     0.06500
C3376       C  0.55248371  0.05894984  0.22953243    -0.27700
H3377       H  0.61805719  0.02627723  0.22628640     0.11200
H3378       H  0.59429882  0.97760459  0.24027708     0.12400
H3379       H  0.50034608  0.02950494  0.24677476     0.11400
H3380       H  0.47719034  0.98152474  0.26197479     0.10700
H3381       H  0.47778910  0.93908176  0.26994914     0.16100
H3382       H  0.55162642  0.93528247  0.25538625     0.12000
H3383       H  0.61683446  0.06909410  0.21665896     0.14800
H3384       H  0.54097536  0.06974014  0.22867705     0.14600
loop_ 
_geom_bond_atom_site_label_1 
_geom_bond_atom_site_label_2 
_geom_bond_distance 
_geom_bond_site_symmetry_2 
_ccdc_geom_bond_type 
O1           C16   1.264       .  A
O1           Al9   1.912       .  S
C2           O12   1.261       .  A
C2            O3   1.260       .  A
C2         C3324   1.468       .  S
O3           Al5   1.901       .  S
O4            C6   1.261       .  A
O4           Al5   1.909       .  S
Al5          O13   1.894       .  S
Al5          O15   1.906       .  S
Al5          O14   1.772       .  S
C6           O19   1.261       .  A
C6         C3303   1.474       .  S
O7           C17   1.264       .  A
O7           Al9   1.904       .  S
O8           C21   1.263       .  A
O8          Al18   1.908       .  S
Al9          O22   1.908       .  S
Al9          O19   1.911       .  S
Al9          O14   1.790       .  S
O10          C17   1.266       .  A
O10         Al18   1.912       .  S
O11          C20   1.265       .  A
O11         Al18   1.931       .  S
O12         Al18   1.914       .  S
O13          C20   1.261       .  A
O14         Al18   1.781       .  S
O15          C16   1.263       .  A
C16        C3348   1.465       .  S
C17        C3375   1.471       .  S
C20        C3279   1.484       .  S
C21          O22   1.261       .  A
C21        C3255   1.482       .  S
O23          C38   1.255       .  A
O23         Al31   1.878       .  S
C24          O34   1.260       .  A
C24          O25   1.273       .  A
C24        C3300   1.469       .  S
O25         Al27   1.961       .  S
O26          C28   1.259       .  A
O26         Al27   1.870       .  S
Al27         O35   1.911       .  S
Al27         O37   1.931       .  S
Al27         O36   1.789       .  S
C28          O41   1.270       .  A
C28        C3228   1.482       .  S
O29          C39   1.253       .  A
O29         Al31   1.902       .  S
O30          C43   1.261       .  A
O30         Al40   1.862       .  S
Al31         O44   1.969       .  S
Al31         O41   1.950       .  S
Al31         O36   1.791       .  S
O32          C39   1.254       .  A
O32         Al40   1.895       .  S
O33          C42   1.258       .  A
O33         Al40   1.915       .  S
O34         Al40   1.875       .  S
O35          C42   1.258       .  A
O36         Al40   1.775       .  S
O37          C38   1.264       .  A
C38        C3135   1.488       .  S
C39        C3156   1.466       .  S
C42        C3183   1.468       .  S
C43          O44   1.276       .  A
C43        C3204   1.484       .  S
O45          C60   1.254       .  A
O45         Al53   1.865       .  S
C46          O56   1.260       .  A
C46          O47   1.269       .  A
C46        C3060   1.460       .  S
O47         Al49   1.941       .  S
O48          C50   1.258       .  A
O48         Al49   1.873       .  S
Al49         O57   1.918       .  S
Al49         O59   1.931       .  S
Al49         O58   1.789       .  S
C50          O63   1.266       .  A
C50        C3012   1.482       .  S
O51          C61   1.252       .  A
O51         Al53   1.895       .  S
O52          C65   1.261       .  A
O52         Al62   1.866       .  S
Al53         O66   1.958       .  S
Al53         O63   1.940       .  S
Al53         O58   1.793       .  S
O54          C61   1.254       .  A
O54         Al62   1.897       .  S
O55          C64   1.257       .  A
O55         Al62   1.900       .  S
O56         Al62   1.874       .  S
O57          C64   1.261       .  A
O58         Al62   1.773       .  S
O59          C60   1.265       .  A
C60        C3039   1.483       .  S
C61        C3084   1.461       .  S
C64        C3207   1.470       .  S
C65          O66   1.273       .  A
C65        C3108   1.475       .  S
O67          C82   1.266       .  A
O67         Al75   1.930       .  S
C68          O78   1.263       .  A
C68          O69   1.260       .  A
C68        C3087   1.462       .  S
O69         Al71   1.898       .  S
O70          C72   1.260       .  A
O70         Al71   1.902       .  S
Al71         O79   1.896       .  S
Al71         O81   1.903       .  S
Al71         O80   1.769       .  S
C72          O85   1.263       .  A
C72        C2967   1.473       .  S
O73          C83   1.267       .  A
O73         Al75   1.927       .  S
O74          C87   1.264       .  A
O74         Al84   1.909       .  S
Al75         O88   1.911       .  S
Al75         O85   1.918       .  S
Al75         O80   1.781       .  S
O76          C83   1.268       .  A
O76         Al84   1.931       .  S
O77          C86   1.267       .  A
O77         Al84   1.941       .  S
O78         Al84   1.914       .  S
O79          C86   1.259       .  A
O80         Al84   1.780       .  S
O81          C82   1.262       .  A
C82        C3276   1.476       .  S
C83        C2988   1.485       .  S
C86        C2940   1.480       .  S
C87          O88   1.263       .  A
C87        C2916   1.480       .  S
O89         C104   1.257       .  A
O89         Al97   1.876       .  S
C90         O100   1.259       .  A
C90          O91   1.269       .  A
C90        C2964   1.465       .  S
O91         Al93   1.950       .  S
O92          C94   1.256       .  A
O92         Al93   1.861       .  S
Al93        O101   1.902       .  S
Al93        O103   1.933       .  S
Al93        O102   1.787       .  S
C94         O107   1.268       .  A
C94        C2895   1.480       .  S
O95         C105   1.255       .  A
O95         Al97   1.902       .  S
O96         C109   1.259       .  A
O96        Al106   1.870       .  S
Al97        O110   1.962       .  S
Al97        O107   1.952       .  S
Al97        O102   1.791       .  S
O98         C105   1.258       .  A
O98        Al106   1.904       .  S
O99         C108   1.258       .  A
O99        Al106   1.903       .  S
O100       Al106   1.877       .  S
O101        C108   1.258       .  A
O102       Al106   1.771       .  S
O103        C104   1.265       .  A
C104       C2868   1.487       .  S
C105       C3327   1.468       .  S
C108       C3111   1.460       .  S
C109        O110   1.273       .  A
C109       C3180   1.477       .  S
O111        C126   1.265       .  A
O111       Al119   1.922       .  S
C112        O122   1.263       .  A
C112        O113   1.262       .  A
C112       C3159   1.466       .  S
O113       Al115   1.904       .  S
O114        C116   1.260       .  A
O114       Al115   1.903       .  S
Al115       O123   1.887       .  S
Al115       O125   1.906       .  S
Al115       O124   1.769       .  S
C116        O129   1.260       .  A
C116       C3063   1.468       .  S
O117        C127   1.264       .  A
O117       Al119   1.917       .  S
O118        C131   1.264       .  A
O118       Al128   1.900       .  S
Al119       O132   1.909       .  S
Al119       O129   1.902       .  S
Al119       O124   1.782       .  S
O120        C127   1.262       .  A
O120       Al128   1.919       .  S
O121        C130   1.263       .  A
O121       Al128   1.931       .  S
O122       Al128   1.916       .  S
O123        C130   1.258       .  A
O124       Al128   1.787       .  S
O125        C126   1.262       .  A
C126       C2943   1.473       .  S
C127       C2844   1.472       .  S
C130       C3351   1.473       .  S
C131        O132   1.263       .  A
C131       C2823   1.472       .  S
O133        C148   1.260       .  A
O133       Al141   1.908       .  S
C134        O144   1.266       .  A
C134        O135   1.262       .  A
C134       C2700   1.474       .  S
O135       Al137   1.906       .  S
O136        C138   1.260       .  A
O136       Al137   1.890       .  S
Al137       O145   1.889       .  S
Al137       O147   1.902       .  S
Al137       O146   1.768       .  S
C138        O151   1.263       .  A
C138       C2724   1.471       .  S
O139        C149   1.260       .  A
O139       Al141   1.899       .  S
O140        C153   1.265       .  A
O140       Al150   1.909       .  S
Al141       O154   1.910       .  S
Al141       O151   1.914       .  S
Al141       O146   1.782       .  S
O142        C149   1.263       .  A
O142       Al150   1.922       .  S
O143        C152   1.265       .  A
O143       Al150   1.931       .  S
O144       Al150   1.930       .  S
O145        C152   1.259       .  A
O146       Al150   1.785       .  S
O147        C148   1.260       .  A
C148       C2772   1.464       .  S
C149       C2799   1.466       .  S
C152       C2748   1.472       .  S
C153        O154   1.264       .  A
C153       C2919   1.474   1_556  S
O155        C170   1.254       .  A
O155       Al163   1.869       .  S
C156        O166   1.259       .  A
C156        O157   1.267       .  A
C156       C2727   1.459       .  S
O157       Al159   1.941       .  S
O158        C160   1.259       .  A
O158       Al159   1.868       .  S
Al159       O167   1.913       .  S
Al159       O169   1.921       .  S
Al159       O168   1.790       .  S
C160        O173   1.271       .  A
C160       C2676   1.484       .  S
O161        C171   1.254       .  A
O161       Al163   1.899       .  S
O162        C175   1.261       .  A
O162       Al172   1.868       .  S
Al163       O176   1.966       .  S
Al163       O173   1.960       .  S
Al163       O168   1.792       .  S
O164        C171   1.254       .  A
O164       Al172   1.890       .  S
O165        C174   1.259       .  A
O165       Al172   1.909       .  S
O166       Al172   1.880       .  S
O167        C174   1.261       .  A
O168       Al172   1.772       .  S
O169        C170   1.262       .  A
C170       C3036   1.481       .  S
C171       C2628   1.463       .  S
C174       C2607   1.467       .  S
C175        O176   1.274       .  A
C175       C2652   1.485       .  S
O177        C192   1.257       .  A
O177       Al185   1.892       .  S
C178        O188   1.258       .  A
C178        O179   1.266       .  A
C178       C2556   1.457       .  S
O179       Al181   1.937       .  S
O180        C182   1.259       .  A
O180       Al181   1.873       .  S
Al181       O189   1.914       .  S
Al181       O191   1.905       .  S
Al181       O190   1.798       .  S
C182        O195   1.267       .  A
C182       C2580   1.476       .  S
O183        C193   1.254       .  A
O183       Al185   1.910       .  S
O184        C197   1.261       .  A
O184       Al194   1.871       .  S
Al185       O198   1.954       .  S
Al185       O195   1.934       .  S
Al185       O190   1.797       .  S
O186        C193   1.254       .  A
O186       Al194   1.895       .  S
O187        C196   1.257       .  A
O187       Al194   1.904       .  S
O188       Al194   1.873       .  S
O189        C196   1.259       .  A
O190       Al194   1.778       .  S
O191        C192   1.260       .  A
C192       C2871   1.485       .  S
C193       C2703   1.476       .  S
C196       C2532   1.470       .  S
C197        O198   1.273       .  A
C197       C2604   1.479       .  S
O199        C214   1.262       .  A
O199       Al207   1.910       .  S
C200        O210   1.263       .  A
C200        O201   1.261       .  A
C200       C2484   1.464       .  S
O201       Al203   1.903       .  S
O202        C204   1.260       .  A
O202       Al203   1.899       .  S
Al203       O211   1.885       .  S
Al203       O213   1.902       .  S
Al203       O212   1.771       .  S
C204        O217   1.261       .  A
C204       C2559   1.472       .  S
O205        C215   1.263       .  A
O205       Al207   1.912       .  S
O206        C219   1.263       .  A
O206       Al216   1.903       .  S
Al207       O220   1.912       .  S
Al207       O217   1.908       .  S
Al207       O212   1.780       .  S
O208        C215   1.264       .  A
O208       Al216   1.921       .  S
O209        C218   1.265       .  A
O209       Al216   1.935       .  S
O210       Al216   1.914       .  S
O211        C218   1.257       .  A
O212       Al216   1.786       .  S
O213        C214   1.261       .  A
C214       C2751   1.465       .  S
C215       C2508   1.473       .  S
C218       C2460   1.472       .  S
C219        O220   1.264       .  A
C219       C3252   1.470   1_556  S
O221        C236   1.254       .  A
O221       Al229   1.872       .  S
C222        O232   1.260       .  A
C222        O223   1.271       .  A
C222       C2412   1.465       .  S
O223       Al225   1.953       .  S
O224        C226   1.258       .  A
O224       Al225   1.865       .  S
Al225       O233   1.914       .  S
Al225       O235   1.930       .  S
Al225       O234   1.793       .  S
C226        O239   1.268       .  A
C226       C2436   1.485       .  S
O227        C237   1.251       .  A
O227       Al229   1.899       .  S
O228        C241   1.263       .  A
O228       Al238   1.864       .  S
Al229       O242   1.965       .  S
Al229       O239   1.948       .  S
Al229       O234   1.797       .  S
O230        C237   1.252       .  A
O230       Al238   1.898       .  S
O231        C240   1.257       .  A
O231       Al238   1.909       .  S
O232       Al238   1.875       .  S
O233        C240   1.259       .  A
O234       Al238   1.776       .  S
O235        C236   1.264       .  A
C236       C3132   1.489       .  S
C237       C2487   1.467       .  S
C240       C2655   1.470       .  S
C241        O242   1.276       .  A
C241       C2535   1.484       .  S
O243        C258   1.264       .  A
O243       Al251   1.916       .  S
C244        O254   1.263       .  A
C244        O245   1.262       .  A
C244       C2631   1.461       .  S
O245       Al247   1.898       .  S
O246        C248   1.259       .  A
O246       Al247   1.898       .  S
Al247       O255   1.890       .  S
Al247       O257   1.900       .  S
Al247       O256   1.767       .  S
C248        O261   1.261       .  A
C248       C2415   1.472       .  S
O249        C259   1.264       .  A
O249       Al251   1.916       .  S
O250        C263   1.264       .  A
O250       Al260   1.904       .  S
Al251       O264   1.914       .  S
Al251       O261   1.916       .  S
Al251       O256   1.781       .  S
O252        C259   1.263       .  A
O252       Al260   1.921       .  S
O253        C262   1.263       .  A
O253       Al260   1.931       .  S
O254       Al260   1.912       .  S
O255        C262   1.259       .  A
O256       Al260   1.787       .  S
O257        C258   1.261       .  A
C258       C2463   1.467       .  S
C259       C2388   1.473       .  S
C262       C2775   1.475       .  S
C263        O264   1.266       .  A
C263       C2820   1.476   1_556  S
O265        C280   1.263       .  A
O265       Al273   1.909       .  S
C266        O276   1.264       .  A
C266        O267   1.260       .  A
C266       C2316   1.467       .  S
O267       Al269   1.898       .  S
O268        C270   1.260       .  A
O268       Al269   1.910       .  S
Al269       O277   1.887       .  S
Al269       O279   1.905       .  S
Al269       O278   1.773       .  S
C270        O283   1.260       .  A
C270       C2292   1.475       .  S
O271        C281   1.262       .  A
O271       Al273   1.902       .  S
O272        C285   1.265       .  A
O272       Al282   1.920       .  S
Al273       O286   1.914       .  S
Al273       O283   1.909       .  S
Al273       O278   1.783       .  S
O274        C281   1.266       .  A
O274       Al282   1.935       .  S
O275        C284   1.266       .  A
O275       Al282   1.943       .  S
O276       Al282   1.921       .  S
O277        C284   1.258       .  A
O278       Al282   1.791       .  S
O279        C280   1.262       .  A
C280       C2343   1.465       .  S
C281       C2364   1.475       .  S
C284       C2271   1.480       .  S
C285        O286   1.264       .  A
C285       C2247   1.484       .  S
O287        C302   1.255       .  A
O287       Al295   1.877       .  S
C288        O298   1.261       .  A
C288        O289   1.270       .  A
C288       C2172   1.466       .  S
O289       Al291   1.946       .  S
O290        C292   1.258       .  A
O290       Al291   1.858       .  S
Al291       O299   1.894       .  S
Al291       O301   1.922       .  S
Al291       O300   1.790       .  S
C292        O305   1.270       .  A
C292       C2439   1.482       .  S
O293        C303   1.253       .  A
O293       Al295   1.901       .  S
O294        C307   1.259       .  A
O294       Al304   1.862       .  S
Al295       O308   1.961       .  S
Al295       O305   1.949       .  S
Al295       O300   1.790       .  S
O296        C303   1.255       .  A
O296       Al304   1.900       .  S
O297        C306   1.258       .  A
O297       Al304   1.905       .  S
O298       Al304   1.878       .  S
O299        C306   1.255       .  A
O300       Al304   1.776       .  S
O301        C302   1.262       .  A
C302       C2148   1.485       .  S
C303       C2319   1.467       .  S
C306       C2196   1.459       .  S
C307        O308   1.274       .  A
C307       C2223   1.474       .  S
O309        C324   1.252       .  A
O309       Al317   1.873       .  S
C310        O320   1.257       .  A
C310        O311   1.270       .  A
C310       C2079   1.473       .  S
O311       Al313   1.964       .  S
O312        C314   1.261       .  A
O312       Al313   1.878       .  S
Al313       O321   1.913       .  S
Al313       O323   1.942       .  S
Al313       O322   1.793       .  S
C314        O327   1.268       .  A
C314       C2583   1.471       .  S
O315        C325   1.253       .  A
O315       Al317   1.901       .  S
O316        C329   1.258       .  A
O316       Al326   1.854       .  S
Al317       O330   1.941       .  S
Al317       O327   1.936       .  S
Al317       O322   1.799       .  S
O318        C325   1.254       .  A
O318       Al326   1.894       .  S
O319        C328   1.260       .  A
O319       Al326   1.907       .  S
O320       Al326   1.878       .  S
O321        C328   1.262       .  A
O322       Al326   1.776       .  S
O323        C324   1.265       .  A
C324       C2052   1.493       .  S
C325       C2127   1.474       .  S
C328       C2100   1.466       .  S
C329        O330   1.271       .  A
C329       C2199   1.475       .  S
O331        C346   1.266       .  A
O331       Al339   1.924       .  S
C332        O342   1.262       .  A
C332        O333   1.259       .  A
C332       C2124   1.469       .  S
O333       Al335   1.897       .  S
O334        C336   1.259       .  A
O334       Al335   1.898       .  S
Al335       O343   1.887       .  S
Al335       O345   1.909       .  S
Al335       O344   1.771       .  S
C336        O349   1.261       .  A
C336       C2175   1.468       .  S
O337        C347   1.267       .  A
O337       Al339   1.919       .  S
O338        C351   1.263       .  A
O338       Al348   1.912       .  S
Al339       O352   1.908       .  S
Al339       O349   1.914       .  S
Al339       O344   1.790       .  S
O340        C347   1.268       .  A
O340       Al348   1.921       .  S
O341        C350   1.265       .  A
O341       Al348   1.932       .  S
O342       Al348   1.920       .  S
O343        C350   1.259       .  A
O344       Al348   1.781       .  S
O345        C346   1.263       .  A
C346       C2268   1.472       .  S
C347       C2031   1.485       .  S
C350       C2007   1.482       .  S
C351        O352   1.261       .  A
C351       C1983   1.485       .  S
O353        C368   1.255       .  A
O353       Al361   1.880       .  S
C354        O364   1.263       .  A
C354        O355   1.272       .  A
C354       C2295   1.469       .  S
O355       Al357   1.955       .  S
O356        C358   1.258       .  A
O356       Al357   1.869       .  S
Al357       O365   1.906       .  S
Al357       O367   1.922       .  S
Al357       O366   1.790       .  S
C358        O371   1.269       .  A
C358       C2679   1.487       .  S
O359        C369   1.251       .  A
O359       Al361   1.895       .  S
O360        C373   1.263       .  A
O360       Al370   1.864       .  S
Al361       O374   1.965       .  S
Al361       O371   1.949       .  S
Al361       O366   1.794       .  S
O362        C369   1.252       .  A
O362       Al370   1.896       .  S
O363        C372   1.255       .  A
O363       Al370   1.906       .  S
O364       Al370   1.880       .  S
O365        C372   1.255       .  A
O366       Al370   1.780       .  S
O367        C368   1.262       .  A
C368       C1932   1.489       .  S
C369       C1956   1.463       .  S
C372       C2220   1.464       .  S
C373        O374   1.277       .  A
C373       C2103   1.480       .  S
O375        C390   1.264       .  A
O375       Al383   1.913       .  S
C376        O386   1.261       .  A
C376        O377   1.259       .  A
C376       C1959   1.459       .  S
O377       Al379   1.890       .  S
O378        C380   1.260       .  A
O378       Al379   1.905       .  S
Al379       O387   1.880       .  S
Al379       O389   1.904       .  S
Al379       O388   1.768       .  S
C380        O393   1.265       .  A
C380       C2076   1.484       .  S
O381        C391   1.262       .  A
O381       Al383   1.896       .  S
O382        C395   1.264       .  A
O382       Al392   1.911       .  S
Al383       O396   1.921       .  S
Al383       O393   1.932       .  S
Al383       O388   1.781       .  S
O384        C391   1.266       .  A
O384       Al392   1.928       .  S
O385        C394   1.266       .  A
O385       Al392   1.942       .  S
O386       Al392   1.912       .  S
O387        C394   1.257       .  A
O388       Al392   1.787       .  S
O389        C390   1.263       .  A
C390       C2004   1.471       .  S
C391       C1908   1.465       .  S
C394       C2340   1.472       .  S
C395        O396   1.265       .  A
C395       C1884   1.486       .  S
O397        C412   1.255   1_554  A
O397       Al405   1.875       .  S
C398        O408   1.259       .  A
C398        O399   1.272       .  A
C398       C1812   1.466       .  S
O399       Al401   1.959       .  S
O400        C402   1.258       .  A
O400       Al401   1.870       .  S
Al401       O409   1.908       .  S
Al401       O411   1.951       .  S
Al401       O410   1.792       .  S
C402        O415   1.271       .  A
C402       C1764   1.489       .  S
O403        C413   1.255       .  A
O403       Al405   1.907       .  S
O404        C417   1.260       .  A
O404       Al414   1.859       .  S
Al405       O418   1.964       .  S
Al405       O415   1.957       .  S
Al405       O410   1.790       .  S
O406        C413   1.254       .  A
O406       Al414   1.894       .  S
O407        C416   1.259       .  A
O407       Al414   1.910       .  S
O408       Al414   1.877       .  S
O409        C416   1.259       .  A
O410       Al414   1.774       .  S
O411        C412   1.266   1_554  A
C412       C2055   1.497       .  S
C413       C1839   1.470       .  S
C416       C1791   1.464       .  S
C417        O418   1.275       .  A
C417       C1860   1.479       .  S
O419        C434   1.261       .  A
O419       Al427   1.907       .  S
C420        O430   1.262       .  A
C420        O421   1.259       .  A
C420       C1836   1.469       .  S
O421       Al423   1.901       .  S
O422        C424   1.260       .  A
O422       Al423   1.899       .  S
Al423       O431   1.884       .  S
Al423       O433   1.911       .  S
Al423       O432   1.772       .  S
C424        O437   1.265       .  A
C424       C1716   1.478       .  S
O425        C435   1.265       .  A
O425       Al427   1.909       .  S
O426        C439   1.262       .  A
O426       Al436   1.910       .  S
Al427       O440   1.916       .  S
Al427       O437   1.931       .  S
Al427       O432   1.784       .  S
O428        C435   1.265       .  A
O428       Al436   1.907       .  S
O429        C438   1.264       .  A
O429       Al436   1.921       .  S
O430       Al436   1.921       .  S
O431        C438   1.259       .  A
O432       Al436   1.783       .  S
O433        C434   1.262       .  A
C434       C1740   1.464       .  S
C435       C3372   1.479       .  S
C438       C1692   1.475       .  S
C439        O440   1.263       .  A
C439       C1887   1.480       .  S
O441        C456   1.264       .  A
O441       Al449   1.915       .  S
C442        O452   1.261       .  A
C442        O443   1.258       .  A
C442       C1668   1.468       .  S
O443       Al445   1.893       .  S
O444        C446   1.261       .  A
O444       Al445   1.906       .  S
Al445       O453   1.873       .  S
Al445       O455   1.896       .  S
Al445       O454   1.774       .  S
C446        O459   1.261       .  A
C446       C1815   1.481       .  S
O447        C457   1.266       .  A
O447       Al449   1.909       .  S
O448        C461   1.260       .  A
O448       Al458   1.908       .  S
Al449       O462   1.909       .  S
Al449       O459   1.912       .  S
Al449       O454   1.783       .  S
O450        C457   1.266       .  A
O450       Al458   1.921       .  S
O451        C460   1.264       .  A
O451       Al458   1.935       .  S
O452       Al458   1.919       .  S
O453        C460   1.256       .  A
O454       Al458   1.791       .  S
O455        C456   1.261       .  A
C456       C1695   1.469       .  S
C457       C2847   1.481       .  S
C460       C1644   1.471       .  S
C461        O462   1.260       .  A
C461       C1980   1.472       .  S
O463        C478   1.254   1_554  A
O463       Al471   1.876       .  S
C464        O474   1.258       .  A
C464        O465   1.266       .  A
C464       C1572   1.462       .  S
O465       Al467   1.940       .  S
O466        C468   1.261       .  A
O466       Al467   1.872       .  S
Al467       O475   1.909       .  S
Al467       O477   1.922       .  S
Al467       O476   1.799       .  S
C468        O481   1.267       .  A
C468       C1623   1.472       .  S
O469        C479   1.252       .  A
O469       Al471   1.901       .  S
O470        C483   1.258       .  A
O470       Al480   1.860       .  S
Al471       O484   1.949       .  S
Al471       O481   1.929       .  S
Al471       O476   1.796       .  S
O472        C479   1.254       .  A
O472       Al480   1.897       .  S
O473        C482   1.260       .  A
O473       Al480   1.905       .  S
O474       Al480   1.883       .  S
O475        C482   1.261       .  A
O476       Al480   1.777       .  S
O477        C478   1.261   1_554  A
C478       C2151   1.485       .  S
C479       C1671   1.470       .  S
C482       C1599   1.468       .  S
C483        O484   1.270       .  A
C483       C1788   1.473       .  S
O485        C500   1.254   1_554  A
O485       Al493   1.885       .  S
C486        O496   1.259       .  A
C486        O487   1.269       .  A
C486       C1719   1.472       .  S
O487       Al489   1.958       .  S
O488        C490   1.262       .  A
O488       Al489   1.874       .  S
Al489       O497   1.906       .  S
Al489       O499   1.926       .  S
Al489       O498   1.798       .  S
C490        O503   1.271       .  A
C490       C1551   1.478       .  S
O491        C501   1.254       .  A
O491       Al493   1.903       .  S
O492        C505   1.260       .  A
O492       Al502   1.864       .  S
Al493       O506   1.955       .  S
Al493       O503   1.943       .  S
Al493       O498   1.793       .  S
O494        C501   1.253       .  A
O494       Al502   1.894       .  S
O495        C504   1.259       .  A
O495       Al502   1.906       .  S
O496       Al502   1.881       .  S
O497        C504   1.259       .  A
O498       Al502   1.778       .  S
O499        C500   1.261   1_554  A
C500       C1935   1.490       .  S
C501       C1524   1.473       .  S
C504       C1863   1.460       .  S
C505        O506   1.272       .  A
C505       C1596   1.485       .  S
O507        C522   1.262       .  A
O507       Al515   1.907       .  S
C508        O518   1.266       .  A
C508        O509   1.263       .  A
C508       C1527   1.469       .  S
O509       Al511   1.904       .  S
O510        C512   1.258       .  A
O510       Al511   1.893       .  S
Al511       O519   1.883       .  S
Al511       O521   1.900       .  S
Al511       O520   1.770       .  S
C512        O525   1.262       .  A
C512       C1575   1.479       .  S
O513        C523   1.264       .  A
O513       Al515   1.916       .  S
O514        C527   1.267       .  A
O514       Al524   1.917       .  S
Al515       O528   1.921       .  S
Al515       O525   1.918       .  S
Al515       O520   1.782       .  S
O516        C523   1.266       .  A
O516       Al524   1.935       .  S
O517        C526   1.264       .  A
O517       Al524   1.941       .  S
O518       Al524   1.924       .  S
O519        C526   1.255       .  A
O520       Al524   1.787       .  S
O521        C522   1.262       .  A
C522       C1647   1.467       .  S
C523       C2991   1.481       .  S
C526       C1743   1.475       .  S
C527        O528   1.266       .  A
C527       C2244   1.487       .  S
O529        C544   1.253       .  A
O529       Al537   1.855       .  S
C530        O540   1.260       .  A
C530        O531   1.270       .  A
C530       C1428   1.467       .  S
O531       Al533   1.953       .  S
O532        C534   1.258       .  A
O532       Al533   1.874       .  S
Al533       O541   1.908       .  S
Al533       O543   1.944       .  S
Al533       O542   1.789       .  S
C534        O547   1.267       .  A
C534       C3231   1.481       .  S
O535        C545   1.254       .  A
O535       Al537   1.897       .  S
O536        C549   1.258       .  A
O536       Al546   1.859       .  S
Al537       O550   1.959   1_655  S
Al537       O547   1.947       .  S
Al537       O542   1.791       .  S
O538        C545   1.259       .  A
O538       Al546   1.913       .  S
O539        C548   1.260       .  A
O539       Al546   1.913       .  S
O540       Al546   1.872       .  S
O541        C548   1.259       .  A
O542       Al546   1.771       .  S
O543        C544   1.267       .  A
C544       C1404   1.484       .  S
C545       C1455   1.468   1_655  S
C548       C1479   1.470       .  S
C549        O550   1.272   1_655  A
C549       C1500   1.473   1_655  S
O551        C566   1.267       .  A
O551       Al559   1.931       .  S
C552        O562   1.261       .  A
C552        O553   1.258       .  A
C552       C1452   1.468       .  S
O553       Al555   1.894       .  S
O554        C556   1.263       .  A
O554       Al555   1.913       .  S
Al555       O563   1.874       .  S
Al555       O565   1.906       .  S
Al555       O564   1.770       .  S
C556        O569   1.261       .  A
C556       C1335   1.478       .  S
O557        C567   1.264       .  A
O557       Al559   1.911       .  S
O558        C571   1.260       .  A
O558       Al568   1.903       .  S
Al559       O572   1.905       .  S
Al559       O569   1.908       .  S
Al559       O564   1.782       .  S
O560        C567   1.266       .  A
O560       Al568   1.923       .  S
O561        C570   1.265       .  A
O561       Al568   1.934       .  S
O562       Al568   1.920       .  S
O563        C570   1.258       .  A
O564       Al568   1.792       .  S
O565        C566   1.262       .  A
C566       C1380   1.481       .  S
C567       C2367   1.475       .  S
C570       C1356   1.470       .  S
C571        O572   1.261       .  A
C571       C1311   1.478       .  S
O573        C588   1.257       .  A
O573       Al581   1.881   1_545  S
C574        O584   1.261       .  A
C574        O575   1.270       .  A
C574       C1332   1.468       .  S
O575       Al577   1.951       .  S
O576        C578   1.259       .  A
O576       Al577   1.874       .  S
Al577       O585   1.902       .  S
Al577       O587   1.924       .  S
Al577       O586   1.790       .  S
C578        O591   1.266       .  A
C578       C2892   1.480       .  S
O579        C589   1.256       .  A
O579       Al581   1.904       .  S
O580        C593   1.261   1_545  A
O580       Al590   1.883       .  S
Al581       O594   1.947       .  S
Al581       O591   1.936   1_565  S
Al581       O586   1.790   1_565  S
O582        C589   1.257   1_545  A
O582       Al590   1.902       .  S
O583        C592   1.256       .  A
O583       Al590   1.900       .  S
O584       Al590   1.883       .  S
O585        C592   1.255       .  A
O586       Al590   1.776       .  S
O587        C588   1.264       .  A
C588       C1239   1.486       .  S
C589       C1263   1.469       .  S
C592       C1503   1.459       .  S
C593        O594   1.271       .  A
C593       C1287   1.475       .  S
O595        C610   1.260       .  A
O595       Al603   1.896   1_545  S
C596        O606   1.264       .  A
C596        O597   1.263       .  A
C596       C1188   1.470       .  S
O597       Al599   1.900       .  S
O598        C600   1.259       .  A
O598       Al599   1.906       .  S
Al599       O607   1.892       .  S
Al599       O609   1.908   1_565  S
Al599       O608   1.768       .  S
C600        O613   1.260   1_565  A
C600       C1431   1.473   1_565  S
O601        C611   1.263       .  A
O601       Al603   1.897       .  S
O602        C615   1.266       .  A
O602       Al612   1.919       .  S
Al603       O616   1.907       .  S
Al603       O613   1.912   1_565  S
Al603       O608   1.784       .  S
O604        C611   1.267       .  A
O604       Al612   1.924       .  S
O605        C614   1.265       .  A
O605       Al612   1.940       .  S
O606       Al612   1.923       .  S
O607        C614   1.258       .  A
O608       Al612   1.784       .  S
O609        C610   1.264       .  A
C610       C1359   1.462       .  S
C611       C1911   1.477       .  S
C614       C1212   1.480       .  S
C615        O616   1.263       .  A
C615       C1164   1.482       .  S
O617        C632   1.255       .  A
O617       Al625   1.882       .  S
C618        O628   1.261       .  A
C618        O619   1.271       .  A
C618       C1140   1.470       .  S
O619       Al621   1.951       .  S
O620        C622   1.258       .  A
O620       Al621   1.864       .  S
Al621       O629   1.906       .  S
Al621       O631   1.906       .  S
Al621       O630   1.787       .  S
C622        O635   1.269       .  A
C622       C3015   1.482       .  S
O623        C633   1.253       .  A
O623       Al625   1.908       .  S
O624        C637   1.261       .  A
O624       Al634   1.856       .  S
Al625       O638   1.969       .  S
Al625       O635   1.946       .  S
Al625       O630   1.796       .  S
O626        C633   1.253       .  A
O626       Al634   1.889       .  S
O627        C636   1.257       .  A
O627       Al634   1.914       .  S
O628       Al634   1.877       .  S
O629        C636   1.255       .  A
O630       Al634   1.776       .  S
O631        C632   1.260       .  A
C632       C1119   1.481       .  S
C633       C1191   1.470       .  S
C636       C1284   1.466       .  S
C637        O638   1.276       .  A
C637       C1476   1.482       .  S
O639        C654   1.267       .  A
O639       Al647   1.923       .  S
C640        O650   1.263       .  A
C640        O641   1.260       .  A
C640       C1260   1.466       .  S
O641       Al643   1.895   1_455  S
O642        C644   1.258       .  A
O642       Al643   1.901       .  S
Al643       O651   1.892   1_655  S
Al643       O653   1.909       .  S
Al643       O652   1.772   1_655  S
C644        O657   1.261       .  A
C644       C1143   1.471       .  S
O645        C655   1.270   1_655  A
O645       Al647   1.930       .  S
O646        C659   1.265   1_455  A
O646       Al656   1.917       .  S
Al647       O660   1.915       .  S
Al647       O657   1.920       .  S
Al647       O652   1.790   1_655  S
O648        C655   1.269       .  A
O648       Al656   1.921       .  S
O649        C658   1.265       .  A
O649       Al656   1.936       .  S
O650       Al656   1.918       .  S
O651        C658   1.259       .  A
O652       Al656   1.781       .  S
O653        C654   1.264       .  A
C654       C1215   1.471       .  S
C655       C2028   1.492       .  S
C658       C1383   1.487       .  S
C659        O660   1.262       .  A
C659       C1092   1.489       .  S
O661        C676   1.263       .  A
O661       Al669   1.907       .  S
C662        O672   1.263       .  A
C662        O663   1.259       .  A
C662        C999   1.472       .  S
O663       Al665   1.892       .  S
O664        C666   1.261       .  A
O664       Al665   1.917       .  S
Al665       O673   1.880       .  S
Al665       O675   1.904       .  S
Al665       O674   1.772       .  S
C666        O679   1.260       .  A
C666       C1047   1.479       .  S
O667        C677   1.265       .  A
O667       Al669   1.901       .  S
O668        C681   1.262       .  A
O668       Al678   1.919       .  S
Al669       O682   1.908       .  S
Al669       O679   1.918       .  S
Al669       O674   1.787       .  S
O670        C677   1.271       .  A
O670       Al678   1.940       .  S
O671        C680   1.267       .  A
O671       Al678   1.947       .  S
O672       Al678   1.926       .  S
O673        C680   1.258       .  A
O674       Al678   1.790       .  S
O675        C676   1.263       .  A
C676       C1068   1.463   1_655  S
C677       C2391   1.477       .  S
C680       C1023   1.484       .  S
C681        O682   1.259       .  A
C681       C1095   1.475       .  S
O683        C698   1.255   1_545  A
O683       Al691   1.871       .  S
C684        O694   1.263       .  A
C684        O685   1.277       .  A
C684       C1044   1.482       .  S
O685       Al687   1.975       .  S
O686        C688   1.258       .  A
O686       Al687   1.871       .  S
Al687       O695   1.906       .  S
Al687       O697   1.934       .  S
Al687       O696   1.785       .  S
C688        O701   1.270       .  A
C688       C1767   1.489       .  S
O689        C699   1.253       .  A
O689       Al691   1.901       .  S
O690        C703   1.262       .  A
O690       Al700   1.864   1_545  S
Al691       O704   1.976       .  S
Al691       O701   1.954   1_545  S
Al691       O696   1.790   1_545  S
O692        C699   1.255       .  A
O692       Al700   1.901   1_545  S
O693        C702   1.257       .  A
O693       Al700   1.917       .  S
O694       Al700   1.879       .  S
O695        C702   1.254       .  A
O696       Al700   1.776       .  S
O697        C698   1.265       .  A
C698       C1236   1.488       .  S
C699        C948   1.464       .  S
C702        C924   1.467       .  S
C703        O704   1.277       .  A
C703        C972   1.482       .  S
O705        C720   1.263       .  A
O705       Al713   1.917       .  S
C706        O716   1.262       .  A
C706        O707   1.262       .  A
C706        C951   1.466       .  S
O707       Al709   1.910       .  S
O708        C710   1.261       .  A
O708       Al709   1.901       .  S
Al709       O717   1.879       .  S
Al709       O719   1.902       .  S
Al709       O718   1.770       .  S
C710        O723   1.264       .  A
C710        C876   1.481       .  S
O711        C721   1.265       .  A
O711       Al713   1.915       .  S
O712        C725   1.263       .  A
O712       Al722   1.897       .  S
Al713       O726   1.920       .  S
Al713       O723   1.920       .  S
Al713       O718   1.781       .  S
O714        C721   1.263       .  A
O714       Al722   1.914       .  S
O715        C724   1.264       .  A
O715       Al722   1.932       .  S
O716       Al722   1.911       .  S
O717        C724   1.256       .  A
O718       Al722   1.787       .  S
O719        C720   1.261       .  A
C720        C900   1.471       .  S
C721       C2796   1.478       .  S
C724       C1071   1.472       .  S
C725        O726   1.266       .  A
C725       C1308   1.476       .  S
O727        C742   1.262       .  A
O727       Al735   1.914   1_565  S
C728        O738   1.265       .  A
C728        O729   1.261       .  A
C728        C855   1.466       .  S
O729       Al731   1.900       .  S
O730        C732   1.258   1_545  A
O730       Al731   1.893       .  S
Al731       O739   1.880       .  S
Al731       O741   1.902   1_545  S
Al731       O740   1.768       .  S
C732        O745   1.263       .  A
C732        C828   1.475       .  S
O733        C743   1.265       .  A
O733       Al735   1.915       .  S
O734        C747   1.265       .  A
O734       Al744   1.908       .  S
Al735       O748   1.913       .  S
Al735       O745   1.920   1_545  S
Al735       O740   1.782       .  S
O736        C743   1.265       .  A
O736       Al744   1.926       .  S
O737        C746   1.265       .  A
O737       Al744   1.944       .  S
O738       Al744   1.922       .  S
O739        C746   1.257       .  A
O740       Al744   1.786       .  S
O741        C742   1.262       .  A
C742       C1020   1.471       .  S
C743       C2511   1.478       .  S
C746        C903   1.477       .  S
C747        O748   1.264       .  A
C747       C1167   1.475       .  S
O749        C764   1.252       .  A
O749       Al757   1.863       .  S
C750        O760   1.258       .  A
C750        O751   1.269       .  A
C750        C879   1.466       .  S
O751       Al753   1.955       .  S
O752        C754   1.258       .  A
O752       Al753   1.857       .  S
Al753       O761   1.906       .  S
Al753       O763   1.936       .  S
Al753       O762   1.791       .  S
C754        O767   1.269   1_455  A
C754       C1620   1.473       .  S
O755        C765   1.251       .  A
O755       Al757   1.888       .  S
O756        C769   1.259       .  A
O756       Al766   1.859   1_655  S
Al757       O770   1.959       .  S
Al757       O767   1.947       .  S
Al757       O762   1.792   1_655  S
O758        C765   1.256       .  A
O758       Al766   1.908   1_655  S
O759        C768   1.262       .  A
O759       Al766   1.914       .  S
O760       Al766   1.882       .  S
O761        C768   1.261       .  A
O762       Al766   1.773       .  S
O763        C764   1.264   1_455  A
C764       C1407   1.484       .  S
C765        C852   1.466       .  S
C768        C975   1.465       .  S
C769        O770   1.274       .  A
C769        C804   1.480       .  S
O771        C786   1.256       .  A
O771       Al779   1.874       .  S
C772        O782   1.258       .  A
C772        O773   1.266       .  A
C772        C831   1.460       .  S
O773       Al775   1.937       .  S
O774        C776   1.257       .  A
O774       Al775   1.865       .  S
Al775       O783   1.907       .  S
Al775       O785   1.930       .  S
Al775       O784   1.787       .  S
C776        O789   1.269       .  A
C776       C1548   1.478       .  S
O777        C787   1.255       .  A
O777       Al779   1.897       .  S
O778        C791   1.257       .  A
O778       Al788   1.870       .  S
Al779       O792   1.958       .  S
Al779       O789   1.952       .  S
Al779       O784   1.790       .  S
O780        C787   1.259       .  A
O780       Al788   1.908       .  S
O781        C790   1.260       .  A
O781       Al788   1.905       .  S
O782       Al788   1.879       .  S
O783        C790   1.261       .  A
O784       Al788   1.767       .  S
O785        C786   1.265       .  A
C786       C1116   1.481       .  S
C787        C996   1.468       .  S
C790        C807   1.464       .  S
C791        O792   1.272       .  A
C791        C927   1.471       .  S
C793        C794   1.401       .  A
C793        C798   1.405   1_545  A
C793        H809   1.083   1_545  S
C794        C795   1.404       .  A
C794        H810   1.084       .  S
C795        C805   1.409       .  A
C795        C796   1.415       .  A
C796        C802   1.409       .  A
C796        C797   1.412   1_545  A
C797        C799   1.414       .  A
C797        C798   1.412       .  A
C798        C806   1.405       .  A
C799        C808   1.401       .  A
C799        C800   1.402       .  A
C800        C801   1.397   1_565  A
C800        H811   1.083       .  S
C801        C802   1.403       .  A
C801        H812   1.084       .  S
C802        C803   1.397       .  A
C803        C804   1.409       .  A
C803        H813   1.085       .  S
C804        C805   1.405       .  A
C805        H814   1.084       .  S
C806        C807   1.404       .  A
C806        H815   1.085       .  S
C807        C808   1.401       .  A
C808        H816   1.084       .  S
C817        C818   1.399       .  A
C817        C822   1.403       .  A
C817        H833   1.083       .  S
C818        C819   1.404   1_554  A
C818        H834   1.084   1_565  S
C819        C829   1.403       .  A
C819        C820   1.412       .  A
C820        C826   1.411       .  A
C820        C821   1.410   1_556  A
C821        C823   1.413       .  A
C821        C822   1.412       .  A
C822        C830   1.401       .  A
C823        C832   1.401       .  A
C823        C824   1.402   1_554  A
C824        C825   1.398       .  A
C824        H835   1.083       .  S
C825        C826   1.403       .  A
C825        H836   1.084       .  S
C826        C827   1.401       .  A
C827        C828   1.406       .  A
C827        H837   1.085       .  S
C828        C829   1.406       .  A
C829        H838   1.085   1_565  S
C830        C831   1.402       .  A
C830        H839   1.085       .  S
C831        C832   1.401       .  A
C832        H840   1.085       .  S
C841        C842   1.398       .  A
C841        C846   1.403       .  A
C841        H857   1.084       .  S
C842        C843   1.403       .  A
C842        H858   1.084       .  S
C843        C853   1.403   1_556  A
C843        C844   1.413       .  A
C844        C850   1.413   1_556  A
C844        C845   1.413       .  A
C845        C847   1.413       .  A
C845        C846   1.412       .  A
C846        C854   1.402       .  A
C847        C856   1.406       .  A
C847        C848   1.404       .  A
C848        C849   1.400   1_556  A
C848        H859   1.083       .  S
C849        C850   1.404       .  A
C849        H860   1.084       .  S
C850        C851   1.404       .  A
C851        C852   1.403       .  A
C851        H861   1.085       .  S
C852        C853   1.402       .  A
C853        H862   1.085       .  S
C854        C855   1.403       .  A
C854        H863   1.085       .  S
C855        C856   1.404       .  A
C856        H864   1.084       .  S
C865        C866   1.400       .  A
C865        C870   1.404       .  A
C865        H881   1.084       .  S
C866        C867   1.404   1_554  A
C866        H882   1.084       .  S
C867        C877   1.406       .  A
C867        C868   1.413       .  A
C868        C874   1.411       .  A
C868        C869   1.413   1_556  A
C869        C871   1.413       .  A
C869        C870   1.412       .  A
C870        C878   1.404       .  A
C871        C880   1.404       .  A
C871        C872   1.403   1_554  A
C872        C873   1.399       .  A
C872        H883   1.083       .  S
C873        C874   1.404       .  A
C873        H884   1.084       .  S
C874        C875   1.402       .  A
C875        C876   1.407       .  A
C875        H885   1.085       .  S
C876        C877   1.407       .  A
C877        H886   1.085       .  S
C878        C879   1.405       .  A
C878        H887   1.085       .  S
C879        C880   1.402       .  A
C880        H888   1.084       .  S
C889        C890   1.403   1_655  A
C889        C894   1.405       .  A
C889        H905   1.083       .  S
C890        C891   1.404       .  A
C890        H906   1.084       .  S
C891        C901   1.410       .  A
C891        C892   1.414       .  A
C892        C898   1.411       .  A
C892        C893   1.413   1_455  A
C893        C895   1.411       .  A
C893        C894   1.412       .  A
C894        C902   1.408       .  A
C895        C904   1.399       .  A
C895        C896   1.402       .  A
C896        C897   1.396       .  A
C896        H907   1.082       .  S
C897        C898   1.402   1_655  A
C897        H908   1.083   1_655  S
C898        C899   1.398       .  A
C899        C900   1.403       .  A
C899        H909   1.085       .  S
C900        C901   1.405       .  A
C901        H910   1.084       .  S
C902        C903   1.407       .  A
C902        H911   1.084       .  S
C903        C904   1.405       .  A
C904        H912   1.084       .  S
C913        C914   1.398       .  A
C913        C918   1.403       .  A
C913        H929   1.084       .  S
C914        C915   1.403       .  A
C914        H930   1.083       .  S
C915        C925   1.399   1_655  A
C915        C916   1.410       .  A
C916        C922   1.415       .  A
C916        C917   1.413       .  A
C917        C919   1.410       .  A
C917        C918   1.415       .  A
C918        C926   1.405       .  A
C919        C928   1.403       .  A
C919        C920   1.405       .  A
C920        C921   1.401       .  A
C920        H931   1.083       .  S
C921        C922   1.404       .  A
C921        H932   1.084       .  S
C922        C923   1.408   1_655  A
C923        C924   1.403       .  A
C923        H933   1.084       .  S
C924        C925   1.401       .  A
C925        H934   1.083       .  S
C926        C927   1.402       .  A
C926        H935   1.085       .  S
C927        C928   1.408       .  A
C928        H936   1.085       .  S
C937        C938   1.397       .  A
C937        C942   1.403       .  A
C937        H953   1.084       .  S
C938        C939   1.402       .  A
C938        H954   1.084   1_545  S
C939        C949   1.399   1_556  A
C939        C940   1.412       .  A
C940        C946   1.414   1_556  A
C940        C941   1.412       .  A
C941        C943   1.413       .  A
C941        C942   1.412       .  A
C942        C950   1.401       .  A
C943        C952   1.405       .  A
C943        C944   1.404       .  A
C944        C945   1.401   1_556  A
C944        H955   1.084       .  S
C945        C946   1.404       .  A
C945        H956   1.084       .  S
C946        C947   1.406       .  A
C947        C948   1.403       .  A
C947        H957   1.085       .  S
C948        C949   1.401       .  A
C949        H958   1.085   1_545  S
C950        C951   1.402       .  A
C950        H959   1.085       .  S
C951        C952   1.403       .  A
C952        H960   1.085       .  S
C961        C962   1.396       .  A
C961        C966   1.401       .  A
C961        H977   1.084       .  S
C962        C963   1.403       .  A
C962        H978   1.084       .  S
C963        C973   1.397       .  A
C963        C964   1.409       .  A
C964        C970   1.415       .  A
C964        C965   1.414       .  A
C965        C967   1.411       .  A
C965        C966   1.414       .  A
C966        C974   1.401       .  A
C967        C976   1.406       .  A
C967        C968   1.405       .  A
C968        C969   1.403       .  A
C968        H979   1.083       .  S
C969        C970   1.405       .  A
C969        H980   1.084       .  S
C970        C971   1.413       .  A
C971        C972   1.407       .  A
C971        H981   1.084       .  S
C972        C973   1.407       .  A
C973        H982   1.085       .  S
C974        C975   1.400       .  A
C974        H983   1.085       .  S
C975        C976   1.406       .  A
C976        H984   1.085       .  S
C985        C986   1.402   1_556  A
C985        C990   1.404       .  A
C985       H1001   1.084       .  S
C986        C987   1.404       .  A
C986       H1002   1.084       .  S
C987        C997   1.407       .  A
C987        C988   1.413   1_554  A
C988        C994   1.412       .  A
C988        C989   1.413       .  A
C989        C991   1.411       .  A
C989        C990   1.414       .  A
C990        C998   1.410       .  A
C991       C1000   1.399       .  A
C991        C992   1.403       .  A
C992        C993   1.397       .  A
C992       H1003   1.084       .  S
C993        C994   1.402       .  A
C993       H1004   1.083       .  S
C994        C995   1.400   1_556  A
C995        C996   1.402       .  A
C995       H1005   1.084       .  S
C996        C997   1.404       .  A
C997       H1006   1.084       .  S
C998        C999   1.404       .  A
C998       H1007   1.084       .  S
C999       C1000   1.405       .  A
C1000      H1008   1.085       .  S
C1009      C1010   1.395       .  A
C1009      C1014   1.403       .  A
C1009      H1025   1.080       .  S
C1010      C1011   1.401       .  A
C1010      H1026   1.082       .  S
C1011      C1021   1.396       .  A
C1011      C1012   1.410       .  A
C1012      C1018   1.414       .  A
C1012      C1013   1.413       .  A
C1013      C1015   1.412       .  A
C1013      C1014   1.410       .  A
C1014      C1022   1.399       .  A
C1015      C1024   1.411       .  A
C1015      C1016   1.405       .  A
C1016      C1017   1.403       .  A
C1016      H1027   1.084       .  S
C1017      C1018   1.405       .  A
C1017      H1028   1.083       .  S
C1018      C1019   1.411       .  A
C1019      C1020   1.405       .  A
C1019      H1029   1.084       .  S
C1020      C1021   1.403       .  A
C1021      H1030   1.083       .  S
C1022      C1023   1.406       .  A
C1022      H1031   1.079       .  S
C1023      C1024   1.408       .  A
C1024      H1032   1.084       .  S
C1033      C1034   1.399       .  A
C1033      C1038   1.404       .  A
C1033      H1049   1.084       .  S
C1034      C1035   1.404       .  A
C1034      H1050   1.084       .  S
C1035      C1045   1.403   1_556  A
C1035      C1036   1.411   1_556  A
C1036      C1042   1.412       .  A
C1036      C1037   1.415   1_554  A
C1037      C1039   1.413       .  A
C1037      C1038   1.411       .  A
C1038      C1046   1.403       .  A
C1039      C1048   1.409   1_455  A
C1039      C1040   1.404   1_456  A
C1040      C1041   1.402   1_655  A
C1040      H1051   1.084       .  S
C1041      C1042   1.405       .  A
C1041      H1052   1.084   1_455  S
C1042      C1043   1.409       .  A
C1043      C1044   1.407       .  A
C1043      H1053   1.083       .  S
C1044      C1045   1.408       .  A
C1045      H1054   1.085       .  S
C1046      C1047   1.407   1_455  A
C1046      H1055   1.085       .  S
C1047      C1048   1.405       .  A
C1048      H1056   1.084       .  S
C1057      C1058   1.400       .  A
C1057      C1062   1.404   1_565  A
C1057      H1073   1.084       .  S
C1058      C1059   1.403       .  A
C1058      H1074   1.084       .  S
C1059      C1069   1.406       .  A
C1059      C1060   1.414       .  A
C1060      C1066   1.410       .  A
C1060      C1061   1.410       .  A
C1061      C1063   1.412   1_565  A
C1061      C1062   1.412   1_565  A
C1062      C1070   1.404       .  A
C1063      C1072   1.398       .  A
C1063      C1064   1.402   1_545  A
C1064      C1065   1.396       .  A
C1064      H1075   1.083   1_565  S
C1065      C1066   1.402       .  A
C1065      H1076   1.080   1_455  S
C1066      C1067   1.397   1_455  A
C1067      C1068   1.401   1_655  A
C1067      H1077   1.079       .  S
C1068      C1069   1.401       .  A
C1069      H1078   1.085       .  S
C1070      C1071   1.405       .  A
C1070      H1079   1.085       .  S
C1071      C1072   1.405       .  A
C1072      H1080   1.084       .  S
C1081      C1082   1.399       .  A
C1081      C1086   1.404   1_455  A
C1081      H1097   1.084       .  S
C1082      C1083   1.403   1_455  A
C1082      H1098   1.084       .  S
C1083      C1093   1.406   1_655  A
C1083      C1084   1.413       .  A
C1084      C1090   1.410       .  A
C1084      C1085   1.415       .  A
C1085      C1087   1.415       .  A
C1085      C1086   1.410       .  A
C1086      C1094   1.402       .  A
C1087      C1096   1.411       .  A
C1087      C1088   1.404       .  A
C1088      C1089   1.402       .  A
C1088      H1099   1.083       .  S
C1089      C1090   1.406       .  A
C1089      H1100   1.083       .  S
C1090      C1091   1.406       .  A
C1091      C1092   1.412       .  A
C1091      H1101   1.084       .  S
C1092      C1093   1.406   1_655  A
C1093      H1102   1.084       .  S
C1094      C1095   1.405       .  A
C1094      H1103   1.085       .  S
C1095      C1096   1.405       .  A
C1096      H1104   1.084       .  S
C1105      C1106   1.398       .  A
C1105      C1110   1.403       .  A
C1105      H1121   1.083       .  S
C1106      C1107   1.404       .  A
C1106      H1122   1.083       .  S
C1107      C1117   1.400       .  A
C1107      C1108   1.410       .  A
C1108      C1114   1.413       .  A
C1108      C1109   1.412       .  A
C1109      C1111   1.410       .  A
C1109      C1110   1.412       .  A
C1110      C1118   1.403       .  A
C1111      C1120   1.403       .  A
C1111      C1112   1.404       .  A
C1112      C1113   1.399       .  A
C1112      H1123   1.083       .  S
C1113      C1114   1.403       .  A
C1113      H1124   1.083       .  S
C1114      C1115   1.405       .  A
C1115      C1116   1.406       .  A
C1115      H1125   1.084       .  S
C1116      C1117   1.409       .  A
C1117      H1126   1.084       .  S
C1118      C1119   1.407       .  A
C1118      H1127   1.084       .  S
C1119      C1120   1.408       .  A
C1120      H1128   1.084       .  S
C1129      C1130   1.400       .  A
C1129      C1134   1.404       .  A
C1129      H1145   1.084       .  S
C1130      C1131   1.404       .  A
C1130      H1146   1.083       .  S
C1131      C1141   1.404       .  A
C1131      C1132   1.413       .  A
C1132      C1138   1.412       .  A
C1132      C1133   1.412       .  A
C1133      C1135   1.412       .  A
C1133      C1134   1.413       .  A
C1134      C1142   1.406       .  A
C1135      C1144   1.400       .  A
C1135      C1136   1.403       .  A
C1136      C1137   1.398       .  A
C1136      H1147   1.084       .  S
C1137      C1138   1.403       .  A
C1137      H1148   1.083       .  S
C1138      C1139   1.400       .  A
C1139      C1140   1.404       .  A
C1139      H1149   1.084       .  S
C1140      C1141   1.404       .  A
C1141      H1150   1.084       .  S
C1142      C1143   1.404       .  A
C1142      H1151   1.085       .  S
C1143      C1144   1.405       .  A
C1144      H1152   1.085       .  S
C1153      C1154   1.398       .  A
C1153      C1158   1.402       .  A
C1153      H1169   1.084       .  S
C1154      C1155   1.404       .  A
C1154      H1170   1.084       .  S
C1155      C1165   1.399       .  A
C1155      C1156   1.409   1_545  A
C1156      C1162   1.414       .  A
C1156      C1157   1.413       .  A
C1157      C1159   1.410       .  A
C1157      C1158   1.414   1_565  A
C1158      C1166   1.405       .  A
C1159      C1168   1.403       .  A
C1159      C1160   1.405       .  A
C1160      C1161   1.401       .  A
C1160      H1171   1.084       .  S
C1161      C1162   1.404       .  A
C1161      H1172   1.084       .  S
C1162      C1163   1.409       .  A
C1163      C1164   1.406       .  A
C1163      H1173   1.084       .  S
C1164      C1165   1.409   1_565  A
C1165      H1174   1.085       .  S
C1166      C1167   1.403       .  A
C1166      H1175   1.085       .  S
C1167      C1168   1.408   1_545  A
C1168      H1176   1.085       .  S
C1177      C1178   1.404       .  A
C1177      C1182   1.405       .  A
C1177      H1193   1.084       .  S
C1178      C1179   1.405       .  A
C1178      H1194   1.083       .  S
C1179      C1189   1.412       .  A
C1179      C1180   1.414       .  A
C1180      C1186   1.411       .  A
C1180      C1181   1.412       .  A
C1181      C1183   1.412       .  A
C1181      C1182   1.414       .  A
C1182      C1190   1.410       .  A
C1183      C1192   1.396       .  A
C1183      C1184   1.402       .  A
C1184      C1185   1.394       .  A
C1184      H1195   1.083       .  S
C1185      C1186   1.402       .  A
C1185      H1196   1.084       .  S
C1186      C1187   1.395       .  A
C1187      C1188   1.402       .  A
C1187      H1197   1.086       .  S
C1188      C1189   1.406       .  A
C1189      H1198   1.084       .  S
C1190      C1191   1.406       .  A
C1190      H1199   1.084       .  S
C1191      C1192   1.402       .  A
C1192      H1200   1.085       .  S
C1201      C1202   1.402       .  A
C1201      C1206   1.404       .  A
C1201      H1217   1.083       .  S
C1202      C1203   1.405       .  A
C1202      H1218   1.084       .  S
C1203      C1213   1.407       .  A
C1203      C1204   1.412       .  A
C1204      C1210   1.413       .  A
C1204      C1205   1.415       .  A
C1205      C1207   1.411       .  A
C1205      C1206   1.415       .  A
C1206      C1214   1.410       .  A
C1207      C1216   1.401       .  A
C1207      C1208   1.403       .  A
C1208      C1209   1.398       .  A
C1208      H1219   1.085       .  S
C1209      C1210   1.403       .  A
C1209      H1220   1.083       .  S
C1210      C1211   1.404       .  A
C1211      C1212   1.406       .  A
C1211      H1221   1.085       .  S
C1212      C1213   1.408       .  A
C1213      H1222   1.084       .  S
C1214      C1215   1.405       .  A
C1214      H1223   1.084       .  S
C1215      C1216   1.404       .  A
C1216      H1224   1.086       .  S
C1225      C1226   1.400       .  A
C1225      C1230   1.404       .  A
C1225      H1241   1.083       .  S
C1226      C1227   1.403       .  A
C1226      H1242   1.084       .  S
C1227      C1237   1.408       .  A
C1227      C1228   1.413       .  A
C1228      C1234   1.409   1_565  A
C1228      C1229   1.414   1_565  A
C1229      C1231   1.413       .  A
C1229      C1230   1.409   1_545  A
C1230      C1238   1.403       .  A
C1231      C1240   1.406       .  A
C1231      C1232   1.403       .  A
C1232      C1233   1.400       .  A
C1232      H1243   1.083       .  S
C1233      C1234   1.405       .  A
C1233      H1244   1.083       .  S
C1234      C1235   1.402       .  A
C1235      C1236   1.412   1_545  A
C1235      H1245   1.084       .  S
C1236      C1237   1.407       .  A
C1237      H1246   1.084       .  S
C1238      C1239   1.410   1_565  A
C1238      H1247   1.084       .  S
C1239      C1240   1.407       .  A
C1240      H1248   1.084       .  S
C1249      C1250   1.401       .  A
C1249      C1254   1.404       .  A
C1249      H1265   1.083       .  S
C1250      C1251   1.404       .  A
C1250      H1266   1.084       .  S
C1251      C1261   1.408       .  A
C1251      C1252   1.414       .  A
C1252      C1258   1.412       .  A
C1252      C1253   1.413       .  A
C1253      C1255   1.413       .  A
C1253      C1254   1.413       .  A
C1254      C1262   1.406       .  A
C1255      C1264   1.402       .  A
C1255      C1256   1.403       .  A
C1256      C1257   1.398       .  A
C1256      H1267   1.084   1_565  S
C1257      C1258   1.403       .  A
C1257      H1268   1.083       .  S
C1258      C1259   1.400       .  A
C1259      C1260   1.403       .  A
C1259      H1269   1.085       .  S
C1260      C1261   1.404       .  A
C1261      H1270   1.084       .  S
C1262      C1263   1.404       .  A
C1262      H1271   1.085       .  S
C1263      C1264   1.403       .  A
C1264      H1272   1.085   1_565  S
C1273      C1274   1.400       .  A
C1273      C1278   1.405   1_655  A
C1273      H1289   1.084   1_655  S
C1274      C1275   1.404       .  A
C1274      H1290   1.084       .  S
C1275      C1285   1.406       .  A
C1275      C1276   1.414       .  A
C1276      C1282   1.411       .  A
C1276      C1277   1.413   1_655  A
C1277      C1279   1.414       .  A
C1277      C1278   1.411       .  A
C1278      C1286   1.403       .  A
C1279      C1288   1.405       .  A
C1279      C1280   1.403       .  A
C1280      C1281   1.398   1_455  A
C1280      H1291   1.084       .  S
C1281      C1282   1.403       .  A
C1281      H1292   1.084       .  S
C1282      C1283   1.401       .  A
C1283      C1284   1.402       .  A
C1283      H1293   1.085       .  S
C1284      C1285   1.403       .  A
C1285      H1294   1.085       .  S
C1286      C1287   1.407       .  A
C1286      H1295   1.085       .  S
C1287      C1288   1.403       .  A
C1288      H1296   1.085       .  S
C1297      C1298   1.398       .  A
C1297      C1302   1.403       .  A
C1297      H1313   1.084       .  S
C1298      C1299   1.403       .  A
C1298      H1314   1.083       .  S
C1299      C1309   1.403       .  A
C1299      C1300   1.413       .  A
C1300      C1306   1.411       .  A
C1300      C1301   1.412       .  A
C1301      C1303   1.413       .  A
C1301      C1302   1.410       .  A
C1302      C1310   1.400       .  A
C1303      C1312   1.407       .  A
C1303      C1304   1.404       .  A
C1304      C1305   1.400       .  A
C1304      H1315   1.083       .  S
C1305      C1306   1.404       .  A
C1305      H1316   1.084       .  S
C1306      C1307   1.403       .  A
C1307      C1308   1.407       .  A
C1307      H1317   1.085       .  S
C1308      C1309   1.404       .  A
C1309      H1318   1.084       .  S
C1310      C1311   1.407       .  A
C1310      H1319   1.085       .  S
C1311      C1312   1.406       .  A
C1312      H1320   1.084       .  S
C1321      C1322   1.398       .  A
C1321      C1326   1.404       .  A
C1321      H1337   1.084       .  S
C1322      C1323   1.403       .  A
C1322      H1338   1.083       .  S
C1323      C1333   1.403       .  A
C1323      C1324   1.413       .  A
C1324      C1330   1.412       .  A
C1324      C1325   1.412       .  A
C1325      C1327   1.413       .  A
C1325      C1326   1.410       .  A
C1326      C1334   1.400       .  A
C1327      C1336   1.406       .  A
C1327      C1328   1.404       .  A
C1328      C1329   1.400       .  A
C1328      H1339   1.084       .  S
C1329      C1330   1.404       .  A
C1329      H1340   1.084       .  S
C1330      C1331   1.404       .  A
C1331      C1332   1.404       .  A
C1331      H1341   1.085       .  S
C1332      C1333   1.403       .  A
C1333      H1342   1.084       .  S
C1334      C1335   1.408       .  A
C1334      H1343   1.085       .  S
C1335      C1336   1.405       .  A
C1336      H1344   1.084       .  S
C1345      C1346   1.395       .  A
C1345      C1350   1.402       .  A
C1345      H1361   1.084       .  S
C1346      C1347   1.402       .  A
C1346      H1362   1.084       .  S
C1347      C1357   1.396   1_655  A
C1347      C1348   1.411       .  A
C1348      C1354   1.413       .  A
C1348      C1349   1.410       .  A
C1349      C1351   1.413       .  A
C1349      C1350   1.412       .  A
C1350      C1358   1.397       .  A
C1351      C1360   1.405       .  A
C1351      C1352   1.404       .  A
C1352      C1353   1.401       .  A
C1352      H1363   1.083       .  S
C1353      C1354   1.404       .  A
C1353      H1364   1.084       .  S
C1354      C1355   1.406   1_655  A
C1355      C1356   1.405       .  A
C1355      H1365   1.085       .  S
C1356      C1357   1.403       .  A
C1357      H1366   1.084       .  S
C1358      C1359   1.401       .  A
C1358      H1367   1.085       .  S
C1359      C1360   1.403       .  A
C1360      H1368   1.085       .  S
C1369      C1370   1.398   1_565  A
C1369      C1374   1.403       .  A
C1369      H1385   1.083   1_455  S
C1370      C1371   1.404       .  A
C1370      H1386   1.083       .  S
C1371      C1381   1.402       .  A
C1371      C1372   1.410       .  A
C1372      C1378   1.414       .  A
C1372      C1373   1.416       .  A
C1373      C1375   1.411   1_545  A
C1373      C1374   1.412   1_545  A
C1374      C1382   1.403       .  A
C1375      C1384   1.410       .  A
C1375      C1376   1.405   1_565  A
C1376      C1377   1.403       .  A
C1376      H1387   1.084       .  S
C1377      C1378   1.405       .  A
C1377      H1388   1.083       .  S
C1378      C1379   1.412       .  A
C1379      C1380   1.406       .  A
C1379      H1389   1.084       .  S
C1380      C1381   1.407       .  A
C1381      H1390   1.084       .  S
C1382      C1383   1.408       .  A
C1382      H1391   1.084       .  S
C1383      C1384   1.410       .  A
C1384      H1392   1.084       .  S
C1393      C1394   1.398       .  A
C1393      C1398   1.402       .  A
C1393      H1409   1.084       .  S
C1394      C1395   1.404   1_455  A
C1394      H1410   1.084       .  S
C1395      C1405   1.398       .  A
C1395      C1396   1.407       .  A
C1396      C1402   1.415       .  A
C1396      C1397   1.413       .  A
C1397      C1399   1.408       .  A
C1397      C1398   1.414   1_655  A
C1398      C1406   1.406       .  A
C1399      C1408   1.402       .  A
C1399      C1400   1.405       .  A
C1400      C1401   1.400       .  A
C1400      H1411   1.083       .  S
C1401      C1402   1.403       .  A
C1401      H1412   1.083       .  S
C1402      C1403   1.409       .  A
C1403      C1404   1.406       .  A
C1403      H1413   1.084       .  S
C1404      C1405   1.411       .  A
C1405      H1414   1.084   1_655  S
C1406      C1407   1.405   1_455  A
C1406      H1415   1.084       .  S
C1407      C1408   1.412       .  A
C1408      H1416   1.084       .  S
C1417      C1418   1.396       .  A
C1417      C1422   1.403       .  A
C1417      H1433   1.084       .  S
C1418      C1419   1.402       .  A
C1418      H1434   1.084       .  S
C1419      C1429   1.399       .  A
C1419      C1420   1.412       .  A
C1420      C1426   1.413       .  A
C1420      C1421   1.411       .  A
C1421      C1423   1.413       .  A
C1421      C1422   1.412       .  A
C1422      C1430   1.399       .  A
C1423      C1432   1.406       .  A
C1423      C1424   1.404       .  A
C1424      C1425   1.401       .  A
C1424      H1435   1.084   1_545  S
C1425      C1426   1.404       .  A
C1425      H1436   1.084       .  S
C1426      C1427   1.406       .  A
C1427      C1428   1.405       .  A
C1427      H1437   1.085       .  S
C1428      C1429   1.402       .  A
C1429      H1438   1.085       .  S
C1430      C1431   1.404       .  A
C1430      H1439   1.085       .  S
C1431      C1432   1.405       .  A
C1432      H1440   1.085   1_545  S
C1441      C1442   1.402       .  A
C1441      C1446   1.405       .  A
C1441      H1457   1.084       .  S
C1442      C1443   1.404       .  A
C1442      H1458   1.083       .  S
C1443      C1453   1.408       .  A
C1443      C1444   1.414       .  A
C1444      C1450   1.411       .  A
C1444      C1445   1.413       .  A
C1445      C1447   1.413       .  A
C1445      C1446   1.413       .  A
C1446      C1454   1.407       .  A
C1447      C1456   1.401   1_455  A
C1447      C1448   1.402   1_455  A
C1448      C1449   1.397       .  A
C1448      H1459   1.084       .  S
C1449      C1450   1.403   1_655  A
C1449      H1460   1.084       .  S
C1450      C1451   1.400       .  A
C1451      C1452   1.404       .  A
C1451      H1461   1.085       .  S
C1452      C1453   1.404       .  A
C1453      H1462   1.085       .  S
C1454      C1455   1.405       .  A
C1454      H1463   1.084       .  S
C1455      C1456   1.401   1_455  A
C1456      H1464   1.085       .  S
C1465      C1466   1.397       .  A
C1465      C1470   1.402   1_565  A
C1465      H1481   1.084   1_565  S
C1466      C1467   1.403       .  A
C1466      H1482   1.084       .  S
C1467      C1477   1.396       .  A
C1467      C1468   1.408       .  A
C1468      C1474   1.415       .  A
C1468      C1469   1.414       .  A
C1469      C1471   1.411   1_565  A
C1469      C1470   1.414   1_565  A
C1470      C1478   1.402       .  A
C1471      C1480   1.407       .  A
C1471      C1472   1.405   1_545  A
C1472      C1473   1.403       .  A
C1472      H1483   1.083       .  S
C1473      C1474   1.405       .  A
C1473      H1484   1.084       .  S
C1474      C1475   1.413       .  A
C1475      C1476   1.407       .  A
C1475      H1485   1.084       .  S
C1476      C1477   1.408       .  A
C1477      H1486   1.086       .  S
C1478      C1479   1.402       .  A
C1478      H1487   1.085       .  S
C1479      C1480   1.406       .  A
C1480      H1488   1.084       .  S
C1489      C1490   1.399       .  A
C1489      C1494   1.404       .  A
C1489      H1505   1.084       .  S
C1490      C1491   1.403       .  A
C1490      H1506   1.084       .  S
C1491      C1501   1.407       .  A
C1491      C1492   1.415       .  A
C1492      C1498   1.409       .  A
C1492      C1493   1.411       .  A
C1493      C1495   1.415       .  A
C1493      C1494   1.411       .  A
C1494      C1502   1.401       .  A
C1495      C1504   1.402       .  A
C1495      C1496   1.402       .  A
C1496      C1497   1.397       .  A
C1496      H1507   1.083       .  S
C1497      C1498   1.404       .  A
C1497      H1508   1.084   1_455  S
C1498      C1499   1.397       .  A
C1499      C1500   1.407       .  A
C1499      H1509   1.085   1_455  S
C1500      C1501   1.403       .  A
C1501      H1510   1.085       .  S
C1502      C1503   1.402       .  A
C1502      H1511   1.085       .  S
C1503      C1504   1.400       .  A
C1504      H1512   1.084       .  S
C1513      C1514   1.397       .  A
C1513      C1518   1.403       .  A
C1513      H1529   1.084       .  S
C1514      C1515   1.403       .  A
C1514      H1530   1.083       .  S
C1515      C1525   1.402       .  A
C1515      C1516   1.413       .  A
C1516      C1522   1.412       .  A
C1516      C1517   1.414       .  A
C1517      C1519   1.414       .  A
C1517      C1518   1.411       .  A
C1518      C1526   1.399       .  A
C1519      C1528   1.409       .  A
C1519      C1520   1.405       .  A
C1520      C1521   1.402       .  A
C1520      H1531   1.083       .  S
C1521      C1522   1.405       .  A
C1521      H1532   1.083       .  S
C1522      C1523   1.408       .  A
C1523      C1524   1.406       .  A
C1523      H1533   1.085       .  S
C1524      C1525   1.403       .  A
C1525      H1534   1.084       .  S
C1526      C1527   1.403       .  A
C1526      H1535   1.085       .  S
C1527      C1528   1.405       .  A
C1528      H1536   1.084       .  S
C1537      C1538   1.397       .  A
C1537      C1542   1.403       .  A
C1537      H1553   1.084       .  S
C1538      C1539   1.403       .  A
C1538      H1554   1.084       .  S
C1539      C1549   1.398       .  A
C1539      C1540   1.410       .  A
C1540      C1546   1.415       .  A
C1540      C1541   1.414       .  A
C1541      C1543   1.413       .  A
C1541      C1542   1.412       .  A
C1542      C1550   1.400       .  A
C1543      C1552   1.410       .  A
C1543      C1544   1.405       .  A
C1544      C1545   1.403       .  A
C1544      H1555   1.083       .  S
C1545      C1546   1.405       .  A
C1545      H1556   1.084       .  S
C1546      C1547   1.412       .  A
C1547      C1548   1.406       .  A
C1547      H1557   1.084       .  S
C1548      C1549   1.406       .  A
C1549      H1558   1.085       .  S
C1550      C1551   1.405       .  A
C1550      H1559   1.085       .  S
C1551      C1552   1.407       .  A
C1552      H1560   1.084       .  S
C1561      C1562   1.399       .  A
C1561      C1566   1.404       .  A
C1561      H1577   1.083       .  S
C1562      C1563   1.404       .  A
C1562      H1578   1.084       .  S
C1563      C1573   1.401       .  A
C1563      C1564   1.412       .  A
C1564      C1570   1.414       .  A
C1564      C1565   1.411       .  A
C1565      C1567   1.411       .  A
C1565      C1566   1.412       .  A
C1566      C1574   1.403       .  A
C1567      C1576   1.402       .  A
C1567      C1568   1.404       .  A
C1568      C1569   1.398       .  A
C1568      H1579   1.084       .  S
C1569      C1570   1.402       .  A
C1569      H1580   1.084       .  S
C1570      C1571   1.403       .  A
C1571      C1572   1.401       .  A
C1571      H1581   1.085       .  S
C1572      C1573   1.404       .  A
C1573      H1582   1.085       .  S
C1574      C1575   1.407       .  A
C1574      H1583   1.084       .  S
C1575      C1576   1.407       .  A
C1576      H1584   1.084       .  S
C1585      C1586   1.404       .  A
C1585      C1590   1.405       .  A
C1585      H1601   1.083       .  S
C1586      C1587   1.405       .  A
C1586      H1602   1.083       .  S
C1587      C1597   1.412       .  A
C1587      C1588   1.414       .  A
C1588      C1594   1.409       .  A
C1588      C1589   1.413       .  A
C1589      C1591   1.413       .  A
C1589      C1590   1.412       .  A
C1590      C1598   1.409       .  A
C1591      C1600   1.398       .  A
C1591      C1592   1.401       .  A
C1592      C1593   1.395       .  A
C1592      H1603   1.084       .  S
C1593      C1594   1.403       .  A
C1593      H1604   1.083       .  S
C1594      C1595   1.395       .  A
C1595      C1596   1.409       .  A
C1595      H1605   1.084       .  S
C1596      C1597   1.409       .  A
C1597      H1606   1.084       .  S
C1598      C1599   1.406       .  A
C1598      H1607   1.084       .  S
C1599      C1600   1.400       .  A
C1600      H1608   1.084       .  S
C1609      C1610   1.404       .  A
C1609      C1614   1.405       .  A
C1609      H1625   1.084       .  S
C1610      C1611   1.405       .  A
C1610      H1626   1.083       .  S
C1611      C1621   1.412       .  A
C1611      C1612   1.415       .  A
C1612      C1618   1.409       .  A
C1612      C1613   1.411       .  A
C1613      C1615   1.412       .  A
C1613      C1614   1.412       .  A
C1614      C1622   1.409       .  A
C1615      C1624   1.396       .  A
C1615      C1616   1.401       .  A
C1616      C1617   1.394       .  A
C1616      H1627   1.084       .  S
C1617      C1618   1.402       .  A
C1617      H1628   1.084       .  S
C1618      C1619   1.393       .  A
C1619      C1620   1.404       .  A
C1619      H1629   1.086       .  S
C1620      C1621   1.406       .  A
C1621      H1630   1.084       .  S
C1622      C1623   1.407       .  A
C1622      H1631   1.084       .  S
C1623      C1624   1.402       .  A
C1624      H1632   1.085       .  S
C1633      C1634   1.397       .  A
C1633      C1638   1.403       .  A
C1633      H1649   1.084       .  S
C1634      C1635   1.403       .  A
C1634      H1650   1.083       .  S
C1635      C1645   1.398       .  A
C1635      C1636   1.411       .  A
C1636      C1642   1.413       .  A
C1636      C1637   1.411       .  A
C1637      C1639   1.414       .  A
C1637      C1638   1.412       .  A
C1638      C1646   1.399       .  A
C1639      C1648   1.406       .  A
C1639      C1640   1.404       .  A
C1640      C1641   1.400       .  A
C1640      H1651   1.084       .  S
C1641      C1642   1.404       .  A
C1641      H1652   1.084       .  S
C1642      C1643   1.406       .  A
C1643      C1644   1.404       .  A
C1643      H1653   1.084       .  S
C1644      C1645   1.405       .  A
C1645      H1654   1.084       .  S
C1646      C1647   1.404       .  A
C1646      H1655   1.085       .  S
C1647      C1648   1.402       .  A
C1648      H1656   1.085       .  S
C1657      C1658   1.402       .  A
C1657      C1662   1.405       .  A
C1657      H1673   1.084       .  S
C1658      C1659   1.405       .  A
C1658      H1674   1.083       .  S
C1659      C1669   1.408       .  A
C1659      C1660   1.413       .  A
C1660      C1666   1.412       .  A
C1660      C1661   1.413       .  A
C1661      C1663   1.413       .  A
C1661      C1662   1.413       .  A
C1662      C1670   1.407       .  A
C1663      C1672   1.402       .  A
C1663      C1664   1.403       .  A
C1664      C1665   1.397       .  A
C1664      H1675   1.084       .  S
C1665      C1666   1.403       .  A
C1665      H1676   1.084       .  S
C1666      C1667   1.401       .  A
C1667      C1668   1.402       .  A
C1667      H1677   1.085       .  S
C1668      C1669   1.405       .  A
C1669      H1678   1.084       .  S
C1670      C1671   1.405       .  A
C1670      H1679   1.085       .  S
C1671      C1672   1.402       .  A
C1672      H1680   1.085       .  S
C1681      C1682   1.396       .  A
C1681      C1686   1.403       .  A
C1681      H1697   1.083       .  S
C1682      C1683   1.402       .  A
C1682      H1698   1.083       .  S
C1683      C1693   1.398       .  A
C1683      C1684   1.412       .  A
C1684      C1690   1.411       .  A
C1684      C1685   1.410       .  A
C1685      C1687   1.415       .  A
C1685      C1686   1.410       .  A
C1686      C1694   1.396       .  A
C1687      C1696   1.407       .  A
C1687      C1688   1.403       .  A
C1688      C1689   1.400       .  A
C1688      H1699   1.083       .  S
C1689      C1690   1.404       .  A
C1689      H1700   1.084       .  S
C1690      C1691   1.403       .  A
C1691      C1692   1.407       .  A
C1691      H1701   1.084       .  S
C1692      C1693   1.405       .  A
C1693      H1702   1.084       .  S
C1694      C1695   1.405       .  A
C1694      H1703   1.084       .  S
C1695      C1696   1.402       .  A
C1696      H1704   1.084       .  S
C1705      C1706   1.397       .  A
C1705      C1710   1.403       .  A
C1705      H1721   1.083       .  S
C1706      C1707   1.403       .  A
C1706      H1722   1.084       .  S
C1707      C1717   1.402       .  A
C1707      C1708   1.412       .  A
C1708      C1714   1.412       .  A
C1708      C1709   1.414       .  A
C1709      C1711   1.413       .  A
C1709      C1710   1.412       .  A
C1710      C1718   1.402       .  A
C1711      C1720   1.408       .  A
C1711      C1712   1.405       .  A
C1712      C1713   1.402       .  A
C1712      H1723   1.084       .  S
C1713      C1714   1.405       .  A
C1713      H1724   1.084       .  S
C1714      C1715   1.407       .  A
C1715      C1716   1.408       .  A
C1715      H1725   1.085       .  S
C1716      C1717   1.405       .  A
C1717      H1726   1.085       .  S
C1718      C1719   1.403       .  A
C1718      H1727   1.085       .  S
C1719      C1720   1.407       .  A
C1720      H1728   1.084       .  S
C1729      C1730   1.400       .  A
C1729      C1734   1.404       .  A
C1729      H1745   1.084       .  S
C1730      C1731   1.403       .  A
C1730      H1746   1.084       .  S
C1731      C1741   1.406       .  A
C1731      C1732   1.414       .  A
C1732      C1738   1.412       .  A
C1732      C1733   1.412       .  A
C1733      C1735   1.413       .  A
C1733      C1734   1.412       .  A
C1734      C1742   1.405       .  A
C1735      C1744   1.402       .  A
C1735      C1736   1.403       .  A
C1736      C1737   1.398       .  A
C1736      H1747   1.084       .  S
C1737      C1738   1.403       .  A
C1737      H1748   1.084       .  S
C1738      C1739   1.400       .  A
C1739      C1740   1.403       .  A
C1739      H1749   1.085       .  S
C1740      C1741   1.402       .  A
C1741      H1750   1.085       .  S
C1742      C1743   1.406       .  A
C1742      H1751   1.084       .  S
C1743      C1744   1.405       .  A
C1744      H1752   1.085       .  S
C1753      C1754   1.396       .  A
C1753      C1758   1.403       .  A
C1753      H1769   1.083       .  S
C1754      C1755   1.403       .  A
C1754      H1770   1.084       .  S
C1755      C1765   1.399       .  A
C1755      C1756   1.410       .  A
C1756      C1762   1.414       .  A
C1756      C1757   1.418       .  A
C1757      C1759   1.413       .  A
C1757      C1758   1.410       .  A
C1758      C1766   1.400       .  A
C1759      C1768   1.417       .  A
C1759      C1760   1.407       .  A
C1760      C1761   1.407       .  A
C1760      H1771   1.083       .  S
C1761      C1762   1.406       .  A
C1761      H1772   1.083       .  S
C1762      C1763   1.417       .  A
C1763      C1764   1.410       .  A
C1763      H1773   1.084       .  S
C1764      C1765   1.408       .  A
C1765      H1774   1.085       .  S
C1766      C1767   1.407       .  A
C1766      H1775   1.085       .  S
C1767      C1768   1.410       .  A
C1768      H1776   1.084       .  S
C1777      C1778   1.397       .  A
C1777      C1782   1.402       .  A
C1777      H1793   1.084       .  S
C1778      C1779   1.403       .  A
C1778      H1794   1.084       .  S
C1779      C1789   1.396       .  A
C1779      C1780   1.409       .  A
C1780      C1786   1.415       .  A
C1780      C1781   1.412       .  A
C1781      C1783   1.411       .  A
C1781      C1782   1.414       .  A
C1782      C1790   1.402       .  A
C1783      C1792   1.404       .  A
C1783      C1784   1.405       .  A
C1784      C1785   1.401       .  A
C1784      H1795   1.084       .  S
C1785      C1786   1.404       .  A
C1785      H1796   1.083       .  S
C1786      C1787   1.409       .  A
C1787      C1788   1.404       .  A
C1787      H1797   1.084       .  S
C1788      C1789   1.405       .  A
C1789      H1798   1.084       .  S
C1790      C1791   1.400       .  A
C1790      H1799   1.085       .  S
C1791      C1792   1.405       .  A
C1792      H1800   1.085       .  S
C1801      C1802   1.400       .  A
C1801      C1806   1.404       .  A
C1801      H1817   1.084       .  S
C1802      C1803   1.404       .  A
C1802      H1818   1.084       .  S
C1803      C1813   1.403       .  A
C1803      C1804   1.412       .  A
C1804      C1810   1.413       .  A
C1804      C1805   1.412       .  A
C1805      C1807   1.410       .  A
C1805      C1806   1.413       .  A
C1806      C1814   1.406       .  A
C1807      C1816   1.401       .  A
C1807      C1808   1.404       .  A
C1808      C1809   1.399       .  A
C1808      H1819   1.084       .  S
C1809      C1810   1.403       .  A
C1809      H1820   1.084       .  S
C1810      C1811   1.404       .  A
C1811      C1812   1.404       .  A
C1811      H1821   1.085       .  S
C1812      C1813   1.404       .  A
C1813      H1822   1.085       .  S
C1814      C1815   1.406       .  A
C1814      H1823   1.084       .  S
C1815      C1816   1.408       .  A
C1816      H1824   1.084       .  S
C1825      C1826   1.402       .  A
C1825      C1830   1.405       .  A
C1825      H1841   1.084       .  S
C1826      C1827   1.405       .  A
C1826      H1842   1.083       .  S
C1827      C1837   1.409       .  A
C1827      C1828   1.413       .  A
C1828      C1834   1.412       .  A
C1828      C1829   1.414       .  A
C1829      C1831   1.412       .  A
C1829      C1830   1.413       .  A
C1830      C1838   1.409       .  A
C1831      C1840   1.400       .  A
C1831      C1832   1.403       .  A
C1832      C1833   1.397       .  A
C1832      H1843   1.083       .  S
C1833      C1834   1.403       .  A
C1833      H1844   1.084       .  S
C1834      C1835   1.401       .  A
C1835      C1836   1.403       .  A
C1835      H1845   1.085       .  S
C1836      C1837   1.405       .  A
C1837      H1846   1.084       .  S
C1838      C1839   1.405       .  A
C1838      H1847   1.085       .  S
C1839      C1840   1.402       .  A
C1840      H1848   1.085       .  S
C1849      C1850   1.396       .  A
C1849      C1854   1.401       .  A
C1849      H1865   1.083       .  S
C1850      C1851   1.403       .  A
C1850      H1866   1.084       .  S
C1851      C1861   1.396       .  A
C1851      C1852   1.409       .  A
C1852      C1858   1.414       .  A
C1852      C1853   1.411       .  A
C1853      C1855   1.412       .  A
C1853      C1854   1.413       .  A
C1854      C1862   1.399       .  A
C1855      C1864   1.405       .  A
C1855      C1856   1.404       .  A
C1856      C1857   1.402       .  A
C1856      H1867   1.083       .  S
C1857      C1858   1.404       .  A
C1857      H1868   1.084       .  S
C1858      C1859   1.410       .  A
C1859      C1860   1.406       .  A
C1859      H1869   1.084       .  S
C1860      C1861   1.408       .  A
C1861      H1870   1.085       .  S
C1862      C1863   1.399       .  A
C1862      H1871   1.084       .  S
C1863      C1864   1.404       .  A
C1864      H1872   1.085       .  S
C1873      C1874   1.401       .  A
C1873      C1878   1.404       .  A
C1873      H1889   1.084       .  S
C1874      C1875   1.404       .  A
C1874      H1890   1.083       .  S
C1875      C1885   1.409       .  A
C1875      C1876   1.413       .  A
C1876      C1882   1.410       .  A
C1876      C1877   1.415       .  A
C1877      C1879   1.414       .  A
C1877      C1878   1.410       .  A
C1878      C1886   1.404       .  A
C1879      C1888   1.408       .  A
C1879      C1880   1.404       .  A
C1880      C1881   1.401       .  A
C1880      H1891   1.084       .  S
C1881      C1882   1.404       .  A
C1881      H1892   1.084       .  S
C1882      C1883   1.404       .  A
C1883      C1884   1.409       .  A
C1883      H1893   1.085       .  S
C1884      C1885   1.408       .  A
C1885      H1894   1.084       .  S
C1886      C1887   1.408       .  A
C1886      H1895   1.085       .  S
C1887      C1888   1.405       .  A
C1888      H1896   1.084       .  S
C1897      C1898   1.401       .  A
C1897      C1902   1.404       .  A
C1897      H1913   1.084       .  S
C1898      C1899   1.404       .  A
C1898      H1914   1.083       .  S
C1899      C1909   1.407       .  A
C1899      C1900   1.414       .  A
C1900      C1906   1.412       .  A
C1900      C1901   1.411       .  A
C1901      C1903   1.411       .  A
C1901      C1902   1.412       .  A
C1902      C1910   1.405       .  A
C1903      C1912   1.399       .  A
C1903      C1904   1.403       .  A
C1904      C1905   1.397       .  A
C1904      H1915   1.083       .  S
C1905      C1906   1.402       .  A
C1905      H1916   1.084       .  S
C1906      C1907   1.398       .  A
C1907      C1908   1.401       .  A
C1907      H1917   1.086       .  S
C1908      C1909   1.403       .  A
C1909      H1918   1.084       .  S
C1910      C1911   1.407       .  A
C1910      H1919   1.085       .  S
C1911      C1912   1.405       .  A
C1912      H1920   1.084       .  S
C1921      C1922   1.401       .  A
C1921      C1926   1.404       .  A
C1921      H1937   1.083       .  S
C1922      C1923   1.405       .  A
C1922      H1938   1.083       .  S
C1923      C1933   1.405       .  A
C1923      C1924   1.410       .  A
C1924      C1930   1.413       .  A
C1924      C1925   1.416       .  A
C1925      C1927   1.410       .  A
C1925      C1926   1.413       .  A
C1926      C1934   1.408       .  A
C1927      C1936   1.405       .  A
C1927      C1928   1.405       .  A
C1928      C1929   1.401       .  A
C1928      H1939   1.083       .  S
C1929      C1930   1.404       .  A
C1929      H1940   1.083       .  S
C1930      C1931   1.407       .  A
C1931      C1932   1.408       .  A
C1931      H1941   1.084       .  S
C1932      C1933   1.411       .  A
C1933      H1942   1.084       .  S
C1934      C1935   1.408       .  A
C1934      H1943   1.084       .  S
C1935      C1936   1.411       .  A
C1936      H1944   1.084       .  S
C1945      C1946   1.400       .  A
C1945      C1950   1.403       .  A
C1945      H1961   1.084       .  S
C1946      C1947   1.404       .  A
C1946      H1962   1.083       .  S
C1947      C1957   1.404       .  A
C1947      C1948   1.413       .  A
C1948      C1954   1.413       .  A
C1948      C1949   1.411       .  A
C1949      C1951   1.412       .  A
C1949      C1950   1.413       .  A
C1950      C1958   1.404       .  A
C1951      C1960   1.399       .  A
C1951      C1952   1.403       .  A
C1952      C1953   1.397       .  A
C1952      H1963   1.084       .  S
C1953      C1954   1.403       .  A
C1953      H1964   1.084       .  S
C1954      C1955   1.401       .  A
C1955      C1956   1.401       .  A
C1955      H1965   1.085       .  S
C1956      C1957   1.403       .  A
C1957      H1966   1.085       .  S
C1958      C1959   1.402       .  A
C1958      H1967   1.085       .  S
C1959      C1960   1.402       .  A
C1960      H1968   1.085       .  S
C1969      C1970   1.399       .  A
C1969      C1974   1.404       .  A
C1969      H1985   1.084       .  S
C1970      C1971   1.403       .  A
C1970      H1986   1.084       .  S
C1971      C1981   1.406       .  A
C1971      C1972   1.414       .  A
C1972      C1978   1.411       .  A
C1972      C1973   1.414       .  A
C1973      C1975   1.413       .  A
C1973      C1974   1.410       .  A
C1974      C1982   1.402       .  A
C1975      C1984   1.406       .  A
C1975      C1976   1.404       .  A
C1976      C1977   1.400       .  A
C1976      H1987   1.083       .  S
C1977      C1978   1.404       .  A
C1977      H1988   1.084       .  S
C1978      C1979   1.404       .  A
C1979      C1980   1.406       .  A
C1979      H1989   1.085       .  S
C1980      C1981   1.402       .  A
C1981      H1990   1.085       .  S
C1982      C1983   1.410       .  A
C1982      H1991   1.084       .  S
C1983      C1984   1.407       .  A
C1984      H1992   1.084       .  S
C1993      C1994   1.396       .  A
C1993      C1998   1.403       .  A
C1993      H2009   1.084       .  S
C1994      C1995   1.402       .  A
C1994      H2010   1.084       .  S
C1995      C2005   1.396       .  A
C1995      C1996   1.410       .  A
C1996      C2002   1.415       .  A
C1996      C1997   1.412       .  A
C1997      C1999   1.411       .  A
C1997      C1998   1.412       .  A
C1998      C2006   1.399       .  A
C1999      C2008   1.407       .  A
C1999      C2000   1.405       .  A
C2000      C2001   1.402       .  A
C2000      H2011   1.083       .  S
C2001      C2002   1.404       .  A
C2001      H2012   1.083       .  S
C2002      C2003   1.409       .  A
C2003      C2004   1.404       .  A
C2003      H2013   1.084       .  S
C2004      C2005   1.404       .  A
C2005      H2014   1.085       .  S
C2006      C2007   1.406       .  A
C2006      H2015   1.084       .  S
C2007      C2008   1.409       .  A
C2008      H2016   1.084       .  S
C2017      C2018   1.396       .  A
C2017      C2022   1.402       .  A
C2017      H2033   1.084       .  S
C2018      C2019   1.403       .  A
C2018      H2034   1.084       .  S
C2019      C2029   1.400       .  A
C2019      C2020   1.410       .  A
C2020      C2026   1.413       .  A
C2020      C2021   1.417       .  A
C2021      C2023   1.413       .  A
C2021      C2022   1.411       .  A
C2022      C2030   1.399       .  A
C2023      C2032   1.415       .  A
C2023      C2024   1.406       .  A
C2024      C2025   1.406       .  A
C2024      H2035   1.083       .  S
C2025      C2026   1.407       .  A
C2025      H2036   1.083   1_455  S
C2026      C2027   1.416       .  A
C2027      C2028   1.411       .  A
C2027      H2037   1.084   1_455  S
C2028      C2029   1.408       .  A
C2029      H2038   1.085       .  S
C2030      C2031   1.405       .  A
C2030      H2039   1.085       .  S
C2031      C2032   1.410       .  A
C2032      H2040   1.083       .  S
C2041      C2042   1.404       .  A
C2041      C2046   1.405       .  A
C2041      H2057   1.083       .  S
C2042      C2043   1.407       .  A
C2042      H2058   1.083       .  S
C2043      C2053   1.408       .  A
C2043      C2044   1.408       .  A
C2044      C2050   1.414       .  A
C2044      C2045   1.418       .  A
C2045      C2047   1.408       .  A
C2045      C2046   1.415       .  A
C2046      C2054   1.416       .  A
C2047      C2056   1.403       .  A
C2047      C2048   1.404       .  A
C2048      C2049   1.399       .  A
C2048      H2059   1.084       .  S
C2049      C2050   1.403       .  A
C2049      H2060   1.084       .  S
C2050      C2051   1.409       .  A
C2051      C2052   1.406       .  A
C2051      H2061   1.084       .  S
C2052      C2053   1.414       .  A
C2053      H2062   1.083       .  S
C2054      C2055   1.411       .  A
C2054      H2063   1.083       .  S
C2055      C2056   1.412       .  A
C2056      H2064   1.084       .  S
C2065      C2066   1.398       .  A
C2065      C2070   1.402       .  A
C2065      H2081   1.084       .  S
C2066      C2067   1.403       .  A
C2066      H2082   1.084       .  S
C2067      C2077   1.402       .  A
C2067      C2068   1.412       .  A
C2068      C2074   1.412       .  A
C2068      C2069   1.415       .  A
C2069      C2071   1.413       .  A
C2069      C2070   1.412       .  A
C2070      C2078   1.402       .  A
C2071      C2080   1.409       .  A
C2071      C2072   1.405       .  A
C2072      C2073   1.403       .  A
C2072      H2083   1.083       .  S
C2073      C2074   1.405       .  A
C2073      H2084   1.084       .  S
C2074      C2075   1.409       .  A
C2075      C2076   1.410       .  A
C2075      H2085   1.085       .  S
C2076      C2077   1.406       .  A
C2077      H2086   1.085       .  S
C2078      C2079   1.403       .  A
C2078      H2087   1.085       .  S
C2079      C2080   1.407       .  A
C2080      H2088   1.085       .  S
C2089      C2090   1.398       .  A
C2089      C2094   1.404       .  A
C2089      H2105   1.084       .  S
C2090      C2091   1.403       .  A
C2090      H2106   1.083       .  S
C2091      C2101   1.402       .  A
C2091      C2092   1.413       .  A
C2092      C2098   1.412       .  A
C2092      C2093   1.413       .  A
C2093      C2095   1.415       .  A
C2093      C2094   1.409       .  A
C2094      C2102   1.399       .  A
C2095      C2104   1.409       .  A
C2095      C2096   1.404       .  A
C2096      C2097   1.401       .  A
C2096      H2107   1.084       .  S
C2097      C2098   1.404       .  A
C2097      H2108   1.084       .  S
C2098      C2099   1.405       .  A
C2099      C2100   1.404       .  A
C2099      H2109   1.085       .  S
C2100      C2101   1.402       .  A
C2101      H2110   1.084       .  S
C2102      C2103   1.409       .  A
C2102      H2111   1.085       .  S
C2103      C2104   1.405       .  A
C2104      H2112   1.085       .  S
C2113      C2114   1.402       .  A
C2113      C2118   1.405       .  A
C2113      H2129   1.084       .  S
C2114      C2115   1.404       .  A
C2114      H2130   1.083       .  S
C2115      C2125   1.409       .  A
C2115      C2116   1.414       .  A
C2116      C2122   1.412       .  A
C2116      C2117   1.413       .  A
C2117      C2119   1.412       .  A
C2117      C2118   1.413       .  A
C2118      C2126   1.408       .  A
C2119      C2128   1.401       .  A
C2119      C2120   1.403       .  A
C2120      C2121   1.397       .  A
C2120      H2131   1.084       .  S
C2121      C2122   1.403       .  A
C2121      H2132   1.084       .  S
C2122      C2123   1.400       .  A
C2123      C2124   1.403       .  A
C2123      H2133   1.086       .  S
C2124      C2125   1.404       .  A
C2125      H2134   1.084       .  S
C2126      C2127   1.406       .  A
C2126      H2135   1.084       .  S
C2127      C2128   1.403       .  A
C2128      H2136   1.085       .  S
C2137      C2138   1.399       .  A
C2137      C2142   1.404       .  A
C2137      H2153   1.083       .  S
C2138      C2139   1.403       .  A
C2138      H2154   1.083       .  S
C2139      C2149   1.406       .  A
C2139      C2140   1.413       .  A
C2140      C2146   1.409       .  A
C2140      C2141   1.413       .  A
C2141      C2143   1.413       .  A
C2141      C2142   1.409       .  A
C2142      C2150   1.401       .  A
C2143      C2152   1.407       .  A
C2143      C2144   1.403       .  A
C2144      C2145   1.400       .  A
C2144      H2155   1.083       .  S
C2145      C2146   1.404       .  A
C2145      H2156   1.083       .  S
C2146      C2147   1.402       .  A
C2147      C2148   1.410       .  A
C2147      H2157   1.084       .  S
C2148      C2149   1.407       .  A
C2149      H2158   1.083       .  S
C2150      C2151   1.410       .  A
C2150      H2159   1.084       .  S
C2151      C2152   1.408       .  A
C2152      H2160   1.083       .  S
C2161      C2162   1.399       .  A
C2161      C2166   1.403       .  A
C2161      H2177   1.084       .  S
C2162      C2163   1.404       .  A
C2162      H2178   1.084       .  S
C2163      C2173   1.403       .  A
C2163      C2164   1.413       .  A
C2164      C2170   1.412       .  A
C2164      C2165   1.410       .  A
C2165      C2167   1.411       .  A
C2165      C2166   1.413       .  A
C2166      C2174   1.403       .  A
C2167      C2176   1.398       .  A
C2167      C2168   1.403       .  A
C2168      C2169   1.397       .  A
C2168      H2179   1.084       .  S
C2169      C2170   1.403       .  A
C2169      H2180   1.083       .  S
C2170      C2171   1.399       .  A
C2171      C2172   1.403       .  A
C2171      H2181   1.085       .  S
C2172      C2173   1.403       .  A
C2173      H2182   1.085       .  S
C2174      C2175   1.403       .  A
C2174      H2183   1.084       .  S
C2175      C2176   1.404       .  A
C2176      H2184   1.085       .  S
C2185      C2186   1.400       .  A
C2185      C2190   1.403       .  A
C2185      H2201   1.084       .  S
C2186      C2187   1.404       .  A
C2186      H2202   1.084       .  S
C2187      C2197   1.403       .  A
C2187      C2188   1.412       .  A
C2188      C2194   1.413       .  A
C2188      C2189   1.409       .  A
C2189      C2191   1.409       .  A
C2189      C2190   1.414       .  A
C2190      C2198   1.406       .  A
C2191      C2200   1.393       .  A
C2191      C2192   1.403       .  A
C2192      C2193   1.395       .  A
C2192      H2203   1.083       .  S
C2193      C2194   1.401       .  A
C2193      H2204   1.084       .  S
C2194      C2195   1.397       .  A
C2195      C2196   1.399       .  A
C2195      H2205   1.085       .  S
C2196      C2197   1.402       .  A
C2197      H2206   1.085       .  S
C2198      C2199   1.404       .  A
C2198      H2207   1.085       .  S
C2199      C2200   1.407       .  A
C2200      H2208   1.084       .  S
C2209      C2210   1.400       .  A
C2209      C2214   1.403       .  A
C2209      H2225   1.084       .  S
C2210      C2211   1.404       .  A
C2210      H2226   1.084       .  S
C2211      C2221   1.402       .  A
C2211      C2212   1.411       .  A
C2212      C2218   1.415       .  A
C2212      C2213   1.412       .  A
C2213      C2215   1.410       .  A
C2213      C2214   1.415       .  A
C2214      C2222   1.407       .  A
C2215      C2224   1.399       .  A
C2215      C2216   1.404       .  A
C2216      C2217   1.398       .  A
C2216      H2227   1.084       .  S
C2217      C2218   1.403       .  A
C2217      H2228   1.083       .  S
C2218      C2219   1.404       .  A
C2219      C2220   1.401       .  A
C2219      H2229   1.085       .  S
C2220      C2221   1.403       .  A
C2221      H2230   1.084       .  S
C2222      C2223   1.403       .  A
C2222      H2231   1.085       .  S
C2223      C2224   1.407       .  A
C2224      H2232   1.085       .  S
C2233      C2234   1.402       .  A
C2233      C2238   1.404       .  A
C2233      H2249   1.083       .  S
C2234      C2235   1.406       .  A
C2234      H2250   1.083       .  S
C2235      C2245   1.406       .  A
C2235      C2236   1.410       .  A
C2236      C2242   1.414       .  A
C2236      C2237   1.416       .  A
C2237      C2239   1.410       .  A
C2237      C2238   1.414       .  A
C2238      C2246   1.411       .  A
C2239      C2248   1.403       .  A
C2239      C2240   1.404       .  A
C2240      C2241   1.400       .  A
C2240      H2251   1.084       .  S
C2241      C2242   1.403       .  A
C2241      H2252   1.084       .  S
C2242      C2243   1.407       .  A
C2243      C2244   1.406       .  A
C2243      H2253   1.085       .  S
C2244      C2245   1.412       .  A
C2245      H2254   1.084       .  S
C2246      C2247   1.407       .  A
C2246      H2255   1.084       .  S
C2247      C2248   1.408       .  A
C2248      H2256   1.085       .  S
C2257      C2258   1.397       .  A
C2257      C2262   1.403       .  A
C2257      H2273   1.084       .  S
C2258      C2259   1.403       .  A
C2258      H2274   1.084       .  S
C2259      C2269   1.399       .  A
C2259      C2260   1.411       .  A
C2260      C2266   1.415       .  A
C2260      C2261   1.415       .  A
C2261      C2263   1.412       .  A
C2261      C2262   1.412       .  A
C2262      C2270   1.402       .  A
C2263      C2272   1.409       .  A
C2263      C2264   1.406       .  A
C2264      C2265   1.403       .  A
C2264      H2275   1.083       .  S
C2265      C2266   1.405       .  A
C2265      H2276   1.083       .  S
C2266      C2267   1.412       .  A
C2267      C2268   1.405       .  A
C2267      H2277   1.084       .  S
C2268      C2269   1.403       .  A
C2269      H2278   1.084       .  S
C2270      C2271   1.405       .  A
C2270      H2279   1.085       .  S
C2271      C2272   1.408       .  A
C2272      H2280   1.084       .  S
C2281      C2282   1.402       .  A
C2281      C2286   1.405       .  A
C2281      H2297   1.084       .  S
C2282      C2283   1.404       .  A
C2282      H2298   1.084       .  S
C2283      C2293   1.408       .  A
C2283      C2284   1.414       .  A
C2284      C2290   1.411       .  A
C2284      C2285   1.412       .  A
C2285      C2287   1.413       .  A
C2285      C2286   1.412       .  A
C2286      C2294   1.405       .  A
C2287      C2296   1.400       .  A
C2287      C2288   1.402       .  A
C2288      C2289   1.397       .  A
C2288      H2299   1.084       .  S
C2289      C2290   1.403       .  A
C2289      H2300   1.084       .  S
C2290      C2291   1.398       .  A
C2291      C2292   1.405       .  A
C2291      H2301   1.085       .  S
C2292      C2293   1.406       .  A
C2293      H2302   1.084       .  S
C2294      C2295   1.405       .  A
C2294      H2303   1.084       .  S
C2295      C2296   1.403       .  A
C2296      H2304   1.085       .  S
C2305      C2306   1.401       .  A
C2305      C2310   1.404       .  A
C2305      H2321   1.084       .  S
C2306      C2307   1.404       .  A
C2306      H2322   1.083       .  S
C2307      C2317   1.407       .  A
C2307      C2308   1.413       .  A
C2308      C2314   1.412       .  A
C2308      C2309   1.413       .  A
C2309      C2311   1.413       .  A
C2309      C2310   1.413       .  A
C2310      C2318   1.406       .  A
C2311      C2320   1.402       .  A
C2311      C2312   1.403       .  A
C2312      C2313   1.398       .  A
C2312      H2323   1.083       .  S
C2313      C2314   1.403       .  A
C2313      H2324   1.084       .  S
C2314      C2315   1.401       .  A
C2315      C2316   1.403       .  A
C2315      H2325   1.085       .  S
C2316      C2317   1.404       .  A
C2317      H2326   1.085       .  S
C2318      C2319   1.404       .  A
C2318      H2327   1.085       .  S
C2319      C2320   1.402       .  A
C2320      H2328   1.084       .  S
C2329      C2330   1.397       .  A
C2329      C2334   1.403       .  A
C2329      H2345   1.085       .  S
C2330      C2331   1.403       .  A
C2330      H2346   1.082       .  S
C2331      C2341   1.401       .  A
C2331      C2332   1.412       .  A
C2332      C2338   1.413       .  A
C2332      C2333   1.412       .  A
C2333      C2335   1.414       .  A
C2333      C2334   1.412       .  A
C2334      C2342   1.400       .  A
C2335      C2344   1.407       .  A
C2335      C2336   1.404       .  A
C2336      C2337   1.401       .  A
C2336      H2347   1.083       .  S
C2337      C2338   1.404       .  A
C2337      H2348   1.084       .  S
C2338      C2339   1.406       .  A
C2339      C2340   1.405       .  A
C2339      H2349   1.085       .  S
C2340      C2341   1.404       .  A
C2341      H2350   1.084       .  S
C2342      C2343   1.402       .  A
C2342      H2351   1.086       .  S
C2343      C2344   1.403       .  A
C2344      H2352   1.084       .  S
C2353      C2354   1.399       .  A
C2353      C2358   1.403       .  A
C2353      H2369   1.083       .  S
C2354      C2355   1.403       .  A
C2354      H2370   1.084       .  S
C2355      C2365   1.404       .  A
C2355      C2356   1.412       .  A
C2356      C2362   1.413       .  A
C2356      C2357   1.414       .  A
C2357      C2359   1.412       .  A
C2357      C2358   1.412       .  A
C2358      C2366   1.404       .  A
C2359      C2368   1.407       .  A
C2359      C2360   1.405       .  A
C2360      C2361   1.402       .  A
C2360      H2371   1.084       .  S
C2361      C2362   1.404       .  A
C2361      H2372   1.083       .  S
C2362      C2363   1.408       .  A
C2363      C2364   1.406       .  A
C2363      H2373   1.084       .  S
C2364      C2365   1.404       .  A
C2365      H2374   1.085       .  S
C2366      C2367   1.404       .  A
C2366      H2375   1.085       .  S
C2367      C2368   1.406       .  A
C2368      H2376   1.085       .  S
C2377      C2378   1.401       .  A
C2377      C2382   1.404       .  A
C2377      H2393   1.083       .  S
C2378      C2379   1.404       .  A
C2378      H2394   1.084       .  S
C2379      C2389   1.407       .  A
C2379      C2380   1.413       .  A
C2380      C2386   1.412       .  A
C2380      C2381   1.414       .  A
C2381      C2383   1.412       .  A
C2381      C2382   1.412       .  A
C2382      C2390   1.407       .  A
C2383      C2392   1.405       .  A
C2383      C2384   1.404       .  A
C2384      C2385   1.400       .  A
C2384      H2395   1.084       .  S
C2385      C2386   1.404       .  A
C2385      H2396   1.083       .  S
C2386      C2387   1.404       .  A
C2387      C2388   1.404       .  A
C2387      H2397   1.084       .  S
C2388      C2389   1.405       .  A
C2389      H2398   1.085       .  S
C2390      C2391   1.406       .  A
C2390      H2399   1.084       .  S
C2391      C2392   1.405       .  A
C2392      H2400   1.085       .  S
C2401      C2402   1.398       .  A
C2401      C2406   1.404       .  A
C2401      H2417   1.084       .  S
C2402      C2403   1.403       .  A
C2402      H2418   1.083       .  S
C2403      C2413   1.401       .  A
C2403      C2404   1.412       .  A
C2404      C2410   1.413       .  A
C2404      C2405   1.411       .  A
C2405      C2407   1.413       .  A
C2405      C2406   1.412       .  A
C2406      C2414   1.402       .  A
C2407      C2416   1.403       .  A
C2407      C2408   1.403       .  A
C2408      C2409   1.399       .  A
C2408      H2419   1.084       .  S
C2409      C2410   1.404       .  A
C2409      H2420   1.083       .  S
C2410      C2411   1.403       .  A
C2411      C2412   1.403       .  A
C2411      H2421   1.085       .  S
C2412      C2413   1.403       .  A
C2413      H2422   1.085       .  S
C2414      C2415   1.405       .  A
C2414      H2423   1.085       .  S
C2415      C2416   1.404       .  A
C2416      H2424   1.085       .  S
C2425      C2426   1.407       .  A
C2425      C2430   1.407   1_655  A
C2425      H2441   1.083   1_655  S
C2426      C2427   1.407       .  A
C2426      H2442   1.083       .  S
C2427      C2437   1.418       .  A
C2427      C2428   1.414       .  A
C2428      C2434   1.409       .  A
C2428      C2429   1.414       .  A
C2429      C2431   1.410       .  A
C2429      C2430   1.413   1_655  A
C2430      C2438   1.415       .  A
C2431      C2440   1.395   1_655  A
C2431      C2432   1.401       .  A
C2432      C2433   1.393       .  A
C2432      H2443   1.084       .  S
C2433      C2434   1.401       .  A
C2433      H2444   1.084       .  S
C2434      C2435   1.394       .  A
C2435      C2436   1.406       .  A
C2435      H2445   1.086       .  S
C2436      C2437   1.410       .  A
C2437      H2446   1.084       .  S
C2438      C2439   1.410       .  A
C2438      H2447   1.084       .  S
C2439      C2440   1.405       .  A
C2440      H2448   1.085       .  S
C2449      C2450   1.400       .  A
C2449      C2454   1.404       .  A
C2449      H2465   1.084       .  S
C2450      C2451   1.404       .  A
C2450      H2466   1.083       .  S
C2451      C2461   1.404       .  A
C2451      C2452   1.412       .  A
C2452      C2458   1.413       .  A
C2452      C2453   1.412       .  A
C2453      C2455   1.412       .  A
C2453      C2454   1.414       .  A
C2454      C2462   1.407       .  A
C2455      C2464   1.400       .  A
C2455      C2456   1.403       .  A
C2456      C2457   1.398       .  A
C2456      H2467   1.085       .  S
C2457      C2458   1.403       .  A
C2457      H2468   1.083       .  S
C2458      C2459   1.402       .  A
C2459      C2460   1.404       .  A
C2459      H2469   1.084       .  S
C2460      C2461   1.405       .  A
C2461      H2470   1.084       .  S
C2462      C2463   1.403       .  A
C2462      H2471   1.085       .  S
C2463      C2464   1.404       .  A
C2464      H2472   1.086       .  S
C2473      C2474   1.400       .  A
C2473      C2478   1.404       .  A
C2473      H2489   1.084       .  S
C2474      C2475   1.404       .  A
C2474      H2490   1.083       .  S
C2475      C2485   1.406       .  A
C2475      C2476   1.414       .  A
C2476      C2482   1.412       .  A
C2476      C2477   1.412       .  A
C2477      C2479   1.413       .  A
C2477      C2478   1.413       .  A
C2478      C2486   1.405       .  A
C2479      C2488   1.402       .  A
C2479      C2480   1.403       .  A
C2480      C2481   1.398       .  A
C2480      H2491   1.083       .  S
C2481      C2482   1.403       .  A
C2481      H2492   1.084       .  S
C2482      C2483   1.400       .  A
C2483      C2484   1.403       .  A
C2483      H2493   1.085       .  S
C2484      C2485   1.403       .  A
C2485      H2494   1.085       .  S
C2486      C2487   1.403       .  A
C2486      H2495   1.085       .  S
C2487      C2488   1.402       .  A
C2488      H2496   1.085       .  S
C2497      C2498   1.400       .  A
C2497      C2502   1.404       .  A
C2497      H2513   1.084       .  S
C2498      C2499   1.404       .  A
C2498      H2514   1.083       .  S
C2499      C2509   1.404       .  A
C2499      C2500   1.412       .  A
C2500      C2506   1.413       .  A
C2500      C2501   1.415       .  A
C2501      C2503   1.411       .  A
C2501      C2502   1.413       .  A
C2502      C2510   1.406       .  A
C2503      C2512   1.406       .  A
C2503      C2504   1.405       .  A
C2504      C2505   1.401       .  A
C2504      H2515   1.083       .  S
C2505      C2506   1.404       .  A
C2505      H2516   1.084       .  S
C2506      C2507   1.407       .  A
C2507      C2508   1.405       .  A
C2507      H2517   1.085       .  S
C2508      C2509   1.404       .  A
C2509      H2518   1.084       .  S
C2510      C2511   1.405       .  A
C2510      H2519   1.085       .  S
C2511      C2512   1.407       .  A
C2512      H2520   1.085       .  S
C2521      C2522   1.396       .  A
C2521      C2526   1.403       .  A
C2521      H2537   1.083       .  S
C2522      C2523   1.402       .  A
C2522      H2538   1.084       .  S
C2523      C2533   1.401       .  A
C2523      C2524   1.413       .  A
C2524      C2530   1.412       .  A
C2524      C2525   1.414       .  A
C2525      C2527   1.414       .  A
C2525      C2526   1.409       .  A
C2526      C2534   1.397       .  A
C2527      C2536   1.412       .  A
C2527      C2528   1.405       .  A
C2528      C2529   1.404       .  A
C2528      H2539   1.084       .  S
C2529      C2530   1.406       .  A
C2529      H2540   1.083       .  S
C2530      C2531   1.409       .  A
C2531      C2532   1.407       .  A
C2531      H2541   1.084       .  S
C2532      C2533   1.401       .  A
C2533      H2542   1.084       .  S
C2534      C2535   1.408       .  A
C2534      H2543   1.084       .  S
C2535      C2536   1.408       .  A
C2536      H2544   1.084       .  S
C2545      C2546   1.397       .  A
C2545      C2550   1.403       .  A
C2545      H2561   1.084       .  S
C2546      C2547   1.402       .  A
C2546      H2562   1.083       .  S
C2547      C2557   1.399       .  A
C2547      C2548   1.413       .  A
C2548      C2554   1.412       .  A
C2548      C2549   1.409       .  A
C2549      C2551   1.413       .  A
C2549      C2550   1.411       .  A
C2550      C2558   1.398       .  A
C2551      C2560   1.403       .  A
C2551      C2552   1.403       .  A
C2552      C2553   1.399       .  A
C2552      H2563   1.084       .  S
C2553      C2554   1.403       .  A
C2553      H2564   1.084       .  S
C2554      C2555   1.401       .  A
C2555      C2556   1.402       .  A
C2555      H2565   1.086       .  S
C2556      C2557   1.400       .  A
C2557      H2566   1.085       .  S
C2558      C2559   1.405       .  A
C2558      H2567   1.085       .  S
C2559      C2560   1.405       .  A
C2560      H2568   1.085       .  S
C2569      C2570   1.395       .  A
C2569      C2574   1.402       .  A
C2569      H2585   1.084       .  S
C2570      C2571   1.402   1_565  A
C2570      H2586   1.084   1_565  S
C2571      C2581   1.398       .  A
C2571      C2572   1.412       .  A
C2572      C2578   1.413       .  A
C2572      C2573   1.413   1_545  A
C2573      C2575   1.414       .  A
C2573      C2574   1.411       .  A
C2574      C2582   1.397       .  A
C2575      C2584   1.412       .  A
C2575      C2576   1.405       .  A
C2576      C2577   1.404   1_565  A
C2576      H2587   1.083       .  S
C2577      C2578   1.406       .  A
C2577      H2588   1.083       .  S
C2578      C2579   1.411       .  A
C2579      C2580   1.407       .  A
C2579      H2589   1.084       .  S
C2580      C2581   1.403       .  A
C2581      H2590   1.086       .  S
C2582      C2583   1.402       .  A
C2582      H2591   1.086       .  S
C2583      C2584   1.406       .  A
C2584      H2592   1.083       .  S
C2593      C2594   1.399       .  A
C2593      C2598   1.403       .  A
C2593      H2609   1.084       .  S
C2594      C2595   1.404       .  A
C2594      H2610   1.084       .  S
C2595      C2605   1.401       .  A
C2595      C2596   1.410       .  A
C2596      C2602   1.414       .  A
C2596      C2597   1.413       .  A
C2597      C2599   1.411       .  A
C2597      C2598   1.414       .  A
C2598      C2606   1.404       .  A
C2599      C2608   1.404       .  A
C2599      C2600   1.404       .  A
C2600      C2601   1.401       .  A
C2600      H2611   1.083       .  S
C2601      C2602   1.404       .  A
C2601      H2612   1.084       .  S
C2602      C2603   1.408       .  A
C2603      C2604   1.405       .  A
C2603      H2613   1.084       .  S
C2604      C2605   1.408       .  A
C2605      H2614   1.084       .  S
C2606      C2607   1.402       .  A
C2606      H2615   1.085       .  S
C2607      C2608   1.404       .  A
C2608      H2616   1.084       .  S
C2617      C2618   1.401       .  A
C2617      C2622   1.404       .  A
C2617      H2633   1.083       .  S
C2618      C2619   1.404       .  A
C2618      H2634   1.084       .  S
C2619      C2629   1.405       .  A
C2619      C2620   1.413       .  A
C2620      C2626   1.413       .  A
C2620      C2621   1.410       .  A
C2621      C2623   1.411       .  A
C2621      C2622   1.414       .  A
C2622      C2630   1.406       .  A
C2623      C2632   1.396       .  A
C2623      C2624   1.402       .  A
C2624      C2625   1.396       .  A
C2624      H2635   1.084       .  S
C2625      C2626   1.402       .  A
C2625      H2636   1.083       .  S
C2626      C2627   1.398       .  A
C2627      C2628   1.401       .  A
C2627      H2637   1.085       .  S
C2628      C2629   1.403       .  A
C2629      H2638   1.085       .  S
C2630      C2631   1.403       .  A
C2630      H2639   1.085       .  S
C2631      C2632   1.401       .  A
C2632      H2640   1.085       .  S
C2641      C2642   1.396       .  A
C2641      C2646   1.401       .  A
C2641      H2657   1.083       .  S
C2642      C2643   1.403       .  A
C2642      H2658   1.085       .  S
C2643      C2653   1.398       .  A
C2643      C2644   1.410       .  A
C2644      C2650   1.414       .  A
C2644      C2645   1.415       .  A
C2645      C2647   1.412       .  A
C2645      C2646   1.413       .  A
C2646      C2654   1.400       .  A
C2647      C2656   1.411       .  A
C2647      C2648   1.406       .  A
C2648      C2649   1.405       .  A
C2648      H2659   1.083       .  S
C2649      C2650   1.406       .  A
C2649      H2660   1.084       .  S
C2650      C2651   1.414       .  A
C2651      C2652   1.409       .  A
C2651      H2661   1.084       .  S
C2652      C2653   1.408       .  A
C2653      H2662   1.085       .  S
C2654      C2655   1.400       .  A
C2654      H2663   1.084       .  S
C2655      C2656   1.408       .  A
C2656      H2664   1.084       .  S
C2665      C2666   1.394       .  A
C2665      C2670   1.401       .  A
C2665      H2681   1.084       .  S
C2666      C2667   1.401       .  A
C2666      H2682   1.084       .  S
C2667      C2677   1.396       .  A
C2667      C2668   1.410       .  A
C2668      C2674   1.414       .  A
C2668      C2669   1.417       .  A
C2669      C2671   1.413       .  A
C2669      C2670   1.410       .  A
C2670      C2678   1.396       .  A
C2671      C2680   1.419       .  A
C2671      C2672   1.408       .  A
C2672      C2673   1.409       .  A
C2672      H2683   1.083       .  S
C2673      C2674   1.407       .  A
C2673      H2684   1.083       .  S
C2674      C2675   1.419       .  A
C2675      C2676   1.411       .  A
C2675      H2685   1.083       .  S
C2676      C2677   1.404       .  A
C2677      H2686   1.086       .  S
C2678      C2679   1.405       .  A
C2678      H2687   1.085       .  S
C2679      C2680   1.412       .  A
C2680      H2688   1.083       .  S
C2689      C2690   1.398       .  A
C2689      C2694   1.403       .  A
C2689      H2705   1.083       .  S
C2690      C2691   1.403       .  A
C2690      H2706   1.084       .  S
C2691      C2701   1.400       .  A
C2691      C2692   1.411       .  A
C2692      C2698   1.414       .  A
C2692      C2693   1.415       .  A
C2693      C2695   1.413       .  A
C2693      C2694   1.412       .  A
C2694      C2702   1.402       .  A
C2695      C2704   1.410       .  A
C2695      C2696   1.405       .  A
C2696      C2697   1.403       .  A
C2696      H2707   1.084       .  S
C2697      C2698   1.405       .  A
C2697      H2708   1.083       .  S
C2698      C2699   1.411       .  A
C2699      C2700   1.405       .  A
C2699      H2709   1.084       .  S
C2700      C2701   1.405       .  A
C2701      H2710   1.085       .  S
C2702      C2703   1.404       .  A
C2702      H2711   1.084       .  S
C2703      C2704   1.406       .  A
C2704      H2712   1.085       .  S
C2713      C2714   1.398       .  A
C2713      C2718   1.402       .  A
C2713      H2729   1.085       .  S
C2714      C2715   1.404       .  A
C2714      H2730   1.082       .  S
C2715      C2725   1.400       .  A
C2715      C2716   1.411       .  A
C2716      C2722   1.413       .  A
C2716      C2717   1.409       .  A
C2717      C2719   1.412       .  A
C2717      C2718   1.414       .  A
C2718      C2726   1.402       .  A
C2719      C2728   1.399       .  A
C2719      C2720   1.403       .  A
C2720      C2721   1.397       .  A
C2720      H2731   1.083       .  S
C2721      C2722   1.403       .  A
C2721      H2732   1.084       .  S
C2722      C2723   1.401       .  A
C2723      C2724   1.404       .  A
C2723      H2733   1.085       .  S
C2724      C2725   1.405       .  A
C2725      H2734   1.083       .  S
C2726      C2727   1.402       .  A
C2726      H2735   1.087       .  S
C2727      C2728   1.401       .  A
C2728      H2736   1.084       .  S
C2737      C2738   1.399       .  A
C2737      C2742   1.403       .  A
C2737      H2753   1.084       .  S
C2738      C2739   1.404       .  A
C2738      H2754   1.083       .  S
C2739      C2749   1.402       .  A
C2739      C2740   1.411       .  A
C2740      C2746   1.413       .  A
C2740      C2741   1.411       .  A
C2741      C2743   1.411       .  A
C2741      C2742   1.414       .  A
C2742      C2750   1.406       .  A
C2743      C2752   1.400       .  A
C2743      C2744   1.403       .  A
C2744      C2745   1.398       .  A
C2744      H2755   1.083       .  S
C2745      C2746   1.403       .  A
C2745      H2756   1.083       .  S
C2746      C2747   1.402       .  A
C2747      C2748   1.404       .  A
C2747      H2757   1.084       .  S
C2748      C2749   1.406       .  A
C2749      H2758   1.084       .  S
C2750      C2751   1.402       .  A
C2750      H2759   1.084       .  S
C2751      C2752   1.403       .  A
C2752      H2760   1.084       .  S
C2761      C2762   1.395       .  A
C2761      C2766   1.402       .  A
C2761      H2777   1.084       .  S
C2762      C2763   1.402       .  A
C2762      H2778   1.084       .  S
C2763      C2773   1.395       .  A
C2763      C2764   1.411       .  A
C2764      C2770   1.414       .  A
C2764      C2765   1.412       .  A
C2765      C2767   1.412       .  A
C2765      C2766   1.413       .  A
C2766      C2774   1.399       .  A
C2767      C2776   1.406       .  A
C2767      C2768   1.405       .  A
C2768      C2769   1.402       .  A
C2768      H2779   1.085       .  S
C2769      C2770   1.405       .  A
C2769      H2780   1.082       .  S
C2770      C2771   1.409       .  A
C2771      C2772   1.405       .  A
C2771      H2781   1.083       .  S
C2772      C2773   1.400       .  A
C2773      H2782   1.086       .  S
C2774      C2775   1.403       .  A
C2774      H2783   1.085       .  S
C2775      C2776   1.408       .  A
C2776      H2784   1.085       .  S
C2785      C2786   1.398       .  A
C2785      C2790   1.403       .  A
C2785      H2801   1.084       .  S
C2786      C2787   1.404       .  A
C2786      H2802   1.084       .  S
C2787      C2797   1.402       .  A
C2787      C2788   1.411       .  A
C2788      C2794   1.413       .  A
C2788      C2789   1.413       .  A
C2789      C2791   1.413       .  A
C2789      C2790   1.413       .  A
C2790      C2798   1.402       .  A
C2791      C2800   1.405       .  A
C2791      C2792   1.404       .  A
C2792      C2793   1.401       .  A
C2792      H2803   1.084       .  S
C2793      C2794   1.404       .  A
C2793      H2804   1.084       .  S
C2794      C2795   1.407       .  A
C2795      C2796   1.406       .  A
C2795      H2805   1.085       .  S
C2796      C2797   1.406       .  A
C2797      H2806   1.085       .  S
C2798      C2799   1.402       .  A
C2798      H2807   1.085       .  S
C2799      C2800   1.403       .  A
C2800      H2808   1.085       .  S
C2809      C2810   1.397       .  A
C2809      C2814   1.402       .  A
C2809      H2825   1.084       .  S
C2810      C2811   1.403       .  A
C2810      H2826   1.084       .  S
C2811      C2821   1.397       .  A
C2811      C2812   1.409       .  A
C2812      C2818   1.414       .  A
C2812      C2813   1.411       .  A
C2813      C2815   1.410       .  A
C2813      C2814   1.414       .  A
C2814      C2822   1.402       .  A
C2815      C2824   1.402       .  A
C2815      C2816   1.405       .  A
C2816      C2817   1.401       .  A
C2816      H2827   1.083       .  S
C2817      C2818   1.404       .  A
C2817      H2828   1.084       .  S
C2818      C2819   1.407       .  A
C2819      C2820   1.406       .  A
C2819      H2829   1.084       .  S
C2820      C2821   1.406       .  A
C2821      H2830   1.085       .  S
C2822      C2823   1.402       .  A
C2822      H2831   1.085       .  S
C2823      C2824   1.408       .  A
C2824      H2832   1.085       .  S
C2833      C2834   1.401   1_455  A
C2833      C2838   1.404       .  A
C2833      H2849   1.083       .  S
C2834      C2835   1.404       .  A
C2834      H2850   1.084       .  S
C2835      C2845   1.408       .  A
C2835      C2836   1.413       .  A
C2836      C2842   1.412       .  A
C2836      C2837   1.415       .  A
C2837      C2839   1.412       .  A
C2837      C2838   1.412   1_655  A
C2838      C2846   1.407       .  A
C2839      C2848   1.404   1_655  A
C2839      C2840   1.404       .  A
C2840      C2841   1.399       .  A
C2840      H2851   1.084       .  S
C2841      C2842   1.403       .  A
C2841      H2852   1.084       .  S
C2842      C2843   1.404       .  A
C2843      C2844   1.404       .  A
C2843      H2853   1.085       .  S
C2844      C2845   1.405       .  A
C2845      H2854   1.084       .  S
C2846      C2847   1.407       .  A
C2846      H2855   1.085       .  S
C2847      C2848   1.407       .  A
C2848      H2856   1.084       .  S
C2857      C2858   1.402       .  A
C2857      C2862   1.405       .  A
C2857      H2873   1.083       .  S
C2858      C2859   1.404       .  A
C2858      H2874   1.083       .  S
C2859      C2869   1.409       .  A
C2859      C2860   1.413       .  A
C2860      C2866   1.409       .  A
C2860      C2861   1.414       .  A
C2861      C2863   1.412       .  A
C2861      C2862   1.410       .  A
C2862      C2870   1.406       .  A
C2863      C2872   1.402       .  A
C2863      C2864   1.403       .  A
C2864      C2865   1.398       .  A
C2864      H2875   1.083       .  S
C2865      C2866   1.403       .  A
C2865      H2876   1.083       .  S
C2866      C2867   1.400       .  A
C2867      C2868   1.409       .  A
C2867      H2877   1.084       .  S
C2868      C2869   1.409       .  A
C2869      H2878   1.084       .  S
C2870      C2871   1.410       .  A
C2870      H2879   1.084       .  S
C2871      C2872   1.407       .  A
C2872      H2880   1.084       .  S
C2881      C2882   1.406       .  A
C2881      C2886   1.406       .  A
C2881      H2897   1.083       .  S
C2882      C2883   1.406       .  A
C2882      H2898   1.083       .  S
C2883      C2893   1.413       .  A
C2883      C2884   1.413       .  A
C2884      C2890   1.411       .  A
C2884      C2885   1.414       .  A
C2885      C2887   1.410       .  A
C2885      C2886   1.414       .  A
C2886      C2894   1.415       .  A
C2887      C2896   1.395       .  A
C2887      C2888   1.402       .  A
C2888      C2889   1.395       .  A
C2888      H2899   1.084       .  S
C2889      C2890   1.402       .  A
C2889      H2900   1.084       .  S
C2890      C2891   1.397       .  A
C2891      C2892   1.404       .  A
C2891      H2901   1.085       .  S
C2892      C2893   1.409       .  A
C2893      H2902   1.084       .  S
C2894      C2895   1.408       .  A
C2894      H2903   1.083       .  S
C2895      C2896   1.405       .  A
C2896      H2904   1.086       .  S
C2905      C2906   1.399       .  A
C2905      C2910   1.403       .  A
C2905      H2921   1.083       .  S
C2906      C2907   1.404       .  A
C2906      H2922   1.084       .  S
C2907      C2917   1.401       .  A
C2907      C2908   1.409       .  A
C2908      C2914   1.414       .  A
C2908      C2909   1.413       .  A
C2909      C2911   1.409       .  A
C2909      C2910   1.415       .  A
C2910      C2918   1.407       .  A
C2911      C2920   1.401       .  A
C2911      C2912   1.404       .  A
C2912      C2913   1.399       .  A
C2912      H2923   1.084       .  S
C2913      C2914   1.403       .  A
C2913      H2924   1.084       .  S
C2914      C2915   1.406       .  A
C2915      C2916   1.405       .  A
C2915      H2925   1.084       .  S
C2916      C2917   1.409       .  A
C2917      H2926   1.085       .  S
C2918      C2919   1.404       .  A
C2918      H2927   1.084       .  S
C2919      C2920   1.407       .  A
C2920      H2928   1.085       .  S
C2929      C2930   1.399       .  A
C2929      C2934   1.404       .  A
C2929      H2945   1.083       .  S
C2930      C2931   1.404       .  A
C2930      H2946   1.083       .  S
C2931      C2941   1.405       .  A
C2931      C2932   1.413       .  A
C2932      C2938   1.411       .  A
C2932      C2933   1.415       .  A
C2933      C2935   1.414       .  A
C2933      C2934   1.411       .  A
C2934      C2942   1.402       .  A
C2935      C2944   1.410       .  A
C2935      C2936   1.404       .  A
C2936      C2937   1.401       .  A
C2936      H2947   1.084       .  S
C2937      C2938   1.404       .  A
C2937      H2948   1.083       .  S
C2938      C2939   1.406       .  A
C2939      C2940   1.407       .  A
C2939      H2949   1.084       .  S
C2940      C2941   1.407       .  A
C2941      H2950   1.083       .  S
C2942      C2943   1.405       .  A
C2942      H2951   1.084       .  S
C2943      C2944   1.404       .  A
C2944      H2952   1.085       .  S
C2953      C2954   1.401       .  A
C2953      C2958   1.404       .  A
C2953      H2969   1.084       .  S
C2954      C2955   1.404       .  A
C2954      H2970   1.083       .  S
C2955      C2965   1.405       .  A
C2955      C2956   1.413       .  A
C2956      C2962   1.412       .  A
C2956      C2957   1.411       .  A
C2957      C2959   1.412       .  A
C2957      C2958   1.413       .  A
C2958      C2966   1.405       .  A
C2959      C2968   1.400       .  A
C2959      C2960   1.403       .  A
C2960      C2961   1.397       .  A
C2960      H2971   1.084       .  S
C2961      C2962   1.402       .  A
C2961      H2972   1.083       .  S
C2962      C2963   1.400       .  A
C2963      C2964   1.402       .  A
C2963      H2973   1.085       .  S
C2964      C2965   1.404       .  A
C2965      H2974   1.085       .  S
C2966      C2967   1.405       .  A
C2966      H2975   1.085       .  S
C2967      C2968   1.404       .  A
C2968      H2976   1.085       .  S
C2977      C2978   1.400       .  A
C2977      C2982   1.403       .  A
C2977      H2993   1.084       .  S
C2978      C2979   1.404       .  A
C2978      H2994   1.084       .  S
C2979      C2989   1.405       .  A
C2979      C2980   1.411       .  A
C2980      C2986   1.413       .  A
C2980      C2981   1.418       .  A
C2981      C2983   1.412       .  A
C2981      C2982   1.413       .  A
C2982      C2990   1.407       .  A
C2983      C2992   1.410       .  A
C2983      C2984   1.405       .  A
C2984      C2985   1.404       .  A
C2984      H2995   1.083       .  S
C2985      C2986   1.405       .  A
C2985      H2996   1.083       .  S
C2986      C2987   1.412       .  A
C2987      C2988   1.409       .  A
C2987      H2997   1.084       .  S
C2988      C2989   1.406       .  A
C2989      H2998   1.085       .  S
C2990      C2991   1.405       .  A
C2990      H2999   1.085       .  S
C2991      C2992   1.408       .  A
C2992      H3000   1.084       .  S
C3001      C3002   1.394       .  A
C3001      C3006   1.402       .  A
C3001      H3017   1.084       .  S
C3002      C3003   1.402       .  A
C3002      H3018   1.084       .  S
C3003      C3013   1.396       .  A
C3003      C3004   1.410       .  A
C3004      C3010   1.413       .  A
C3004      C3005   1.415       .  A
C3005      C3007   1.413       .  A
C3005      C3006   1.410       .  A
C3006      C3014   1.396       .  A
C3007      C3016   1.415       .  A
C3007      C3008   1.406       .  A
C3008      C3009   1.406       .  A
C3008      H3019   1.083       .  S
C3009      C3010   1.406       .  A
C3009      H3020   1.083       .  S
C3010      C3011   1.415       .  A
C3011      C3012   1.409       .  A
C3011      H3021   1.083       .  S
C3012      C3013   1.405       .  A
C3013      H3022   1.086       .  S
C3014      C3015   1.405       .  A
C3014      H3023   1.086       .  S
C3015      C3016   1.410       .  A
C3016      H3024   1.083       .  S
C3025      C3026   1.399       .  A
C3025      C3030   1.403       .  A
C3025      H3041   1.084       .  S
C3026      C3027   1.404       .  A
C3026      H3042   1.084       .  S
C3027      C3037   1.400       .  A
C3027      C3028   1.409       .  A
C3028      C3034   1.413       .  A
C3028      C3029   1.412       .  A
C3029      C3031   1.408       .  A
C3029      C3030   1.414       .  A
C3030      C3038   1.406       .  A
C3031      C3040   1.400       .  A
C3031      C3032   1.404       .  A
C3032      C3033   1.399       .  A
C3032      H3043   1.083       .  S
C3033      C3034   1.403       .  A
C3033      H3044   1.083       .  S
C3034      C3035   1.405       .  A
C3035      C3036   1.406       .  A
C3035      H3045   1.084       .  S
C3036      C3037   1.409       .  A
C3037      H3046   1.084       .  S
C3038      C3039   1.406       .  A
C3038      H3047   1.084       .  S
C3039      C3040   1.411       .  A
C3040      H3048   1.084       .  S
C3049      C3050   1.396       .  A
C3049      C3054   1.403       .  A
C3049      H3065   1.084       .  S
C3050      C3051   1.402       .  A
C3050      H3066   1.083       .  S
C3051      C3061   1.399       .  A
C3051      C3052   1.413       .  A
C3052      C3058   1.412       .  A
C3052      C3053   1.409       .  A
C3053      C3055   1.414       .  A
C3053      C3054   1.411       .  A
C3054      C3062   1.397       .  A
C3055      C3064   1.404       .  A
C3055      C3056   1.403       .  A
C3056      C3057   1.399       .  A
C3056      H3067   1.084       .  S
C3057      C3058   1.404       .  A
C3057      H3068   1.084       .  S
C3058      C3059   1.401       .  A
C3059      C3060   1.402       .  A
C3059      H3069   1.085       .  S
C3060      C3061   1.402       .  A
C3061      H3070   1.085       .  S
C3062      C3063   1.404       .  A
C3062      H3071   1.085       .  S
C3063      C3064   1.403       .  A
C3064      H3072   1.085       .  S
C3073      C3074   1.398       .  A
C3073      C3078   1.403       .  A
C3073      H3089   1.084       .  S
C3074      C3075   1.403       .  A
C3074      H3090   1.083       .  S
C3075      C3085   1.400       .  A
C3075      C3076   1.413       .  A
C3076      C3082   1.413       .  A
C3076      C3077   1.410       .  A
C3077      C3079   1.414       .  A
C3077      C3078   1.412       .  A
C3078      C3086   1.399       .  A
C3079      C3088   1.404       .  A
C3079      C3080   1.403       .  A
C3080      C3081   1.399       .  A
C3080      H3091   1.084       .  S
C3081      C3082   1.403       .  A
C3081      H3092   1.084       .  S
C3082      C3083   1.403       .  A
C3083      C3084   1.401       .  A
C3083      H3093   1.085       .  S
C3084      C3085   1.402       .  A
C3085      H3094   1.085       .  S
C3086      C3087   1.403       .  A
C3086      H3095   1.085       .  S
C3087      C3088   1.401       .  A
C3088      H3096   1.085       .  S
C3097      C3098   1.400       .  A
C3097      C3102   1.404       .  A
C3097      H3113   1.084       .  S
C3098      C3099   1.404       .  A
C3098      H3114   1.084       .  S
C3099      C3109   1.408       .  A
C3099      C3100   1.415       .  A
C3100      C3106   1.410       .  A
C3100      C3101   1.411       .  A
C3101      C3103   1.414       .  A
C3101      C3102   1.411       .  A
C3102      C3110   1.402       .  A
C3103      C3112   1.402       .  A
C3103      C3104   1.402       .  A
C3104      C3105   1.397       .  A
C3104      H3115   1.083       .  S
C3105      C3106   1.403       .  A
C3105      H3116   1.084       .  S
C3106      C3107   1.398       .  A
C3107      C3108   1.406       .  A
C3107      H3117   1.085       .  S
C3108      C3109   1.404       .  A
C3109      H3118   1.085       .  S
C3110      C3111   1.403       .  A
C3110      H3119   1.085       .  S
C3111      C3112   1.400       .  A
C3112      H3120   1.084       .  S
C3121      C3122   1.400       .  A
C3121      C3126   1.405       .  A
C3121      H3137   1.083       .  S
C3122      C3123   1.403       .  A
C3122      H3138   1.083       .  S
C3123      C3133   1.408       .  A
C3123      C3124   1.413       .  A
C3124      C3130   1.409       .  A
C3124      C3125   1.415       .  A
C3125      C3127   1.413       .  A
C3125      C3126   1.409       .  A
C3126      C3134   1.404       .  A
C3127      C3136   1.408       .  A
C3127      C3128   1.403       .  A
C3128      C3129   1.400       .  A
C3128      H3139   1.083       .  S
C3129      C3130   1.405       .  A
C3129      H3140   1.083       .  S
C3130      C3131   1.404       .  A
C3131      C3132   1.411       .  A
C3131      H3141   1.083       .  S
C3132      C3133   1.407       .  A
C3133      H3142   1.084       .  S
C3134      C3135   1.411       .  A
C3134      H3143   1.084       .  S
C3135      C3136   1.407       .  A
C3136      H3144   1.084       .  S
C3145      C3146   1.401       .  A
C3145      C3150   1.404       .  A
C3145      H3161   1.084       .  S
C3146      C3147   1.404       .  A
C3146      H3162   1.084       .  S
C3147      C3157   1.406       .  A
C3147      C3148   1.413       .  A
C3148      C3154   1.413       .  A
C3148      C3149   1.412       .  A
C3149      C3151   1.412       .  A
C3149      C3150   1.414       .  A
C3150      C3158   1.407       .  A
C3151      C3160   1.399       .  A
C3151      C3152   1.403       .  A
C3152      C3153   1.397       .  A
C3152      H3163   1.083       .  S
C3153      C3154   1.403       .  A
C3153      H3164   1.084       .  S
C3154      C3155   1.400       .  A
C3155      C3156   1.402       .  A
C3155      H3165   1.085       .  S
C3156      C3157   1.403       .  A
C3157      H3166   1.085       .  S
C3158      C3159   1.403       .  A
C3158      H3167   1.085       .  S
C3159      C3160   1.403       .  A
C3160      H3168   1.085       .  S
C3169      C3170   1.400       .  A
C3169      C3174   1.404       .  A
C3169      H3185   1.083       .  S
C3170      C3171   1.404       .  A
C3170      H3186   1.084       .  S
C3171      C3181   1.408       .  A
C3171      C3172   1.415       .  A
C3172      C3178   1.410       .  A
C3172      C3173   1.413       .  A
C3173      C3175   1.415       .  A
C3173      C3174   1.411       .  A
C3174      C3182   1.403       .  A
C3175      C3184   1.406       .  A
C3175      C3176   1.403       .  A
C3176      C3177   1.399       .  A
C3176      H3187   1.084       .  S
C3177      C3178   1.404       .  A
C3177      H3188   1.084       .  S
C3178      C3179   1.402       .  A
C3179      C3180   1.408       .  A
C3179      H3189   1.085       .  S
C3180      C3181   1.404       .  A
C3181      H3190   1.085       .  S
C3182      C3183   1.404       .  A
C3182      H3191   1.082       .  S
C3183      C3184   1.402       .  A
C3184      H3192   1.085       .  S
C3193      C3194   1.396       .  A
C3193      C3198   1.402       .  A
C3193      H3209   1.084       .  S
C3194      C3195   1.403       .  A
C3194      H3210   1.084       .  S
C3195      C3205   1.397       .  A
C3195      C3196   1.409       .  A
C3196      C3202   1.415       .  A
C3196      C3197   1.414       .  A
C3197      C3199   1.412       .  A
C3197      C3198   1.413       .  A
C3198      C3206   1.401       .  A
C3199      C3208   1.409       .  A
C3199      C3200   1.406       .  A
C3200      C3201   1.404       .  A
C3200      H3211   1.084       .  S
C3201      C3202   1.405       .  A
C3201      H3212   1.084       .  S
C3202      C3203   1.413       .  A
C3203      C3204   1.407       .  A
C3203      H3213   1.084       .  S
C3204      C3205   1.408       .  A
C3205      H3214   1.085       .  S
C3206      C3207   1.402       .  A
C3206      H3215   1.085       .  S
C3207      C3208   1.407       .  A
C3208      H3216   1.084       .  S
C3217      C3218   1.395       .  A
C3217      C3222   1.402       .  A
C3217      H3233   1.084       .  S
C3218      C3219   1.402       .  A
C3218      H3234   1.084       .  S
C3219      C3229   1.398       .  A
C3219      C3220   1.411       .  A
C3220      C3226   1.413       .  A
C3220      C3221   1.416       .  A
C3221      C3223   1.413       .  A
C3221      C3222   1.411       .  A
C3222      C3230   1.398       .  A
C3223      C3232   1.415       .  A
C3223      C3224   1.406       .  A
C3224      C3225   1.406       .  A
C3224      H3235   1.083       .  S
C3225      C3226   1.407       .  A
C3225      H3236   1.083       .  S
C3226      C3227   1.416       .  A
C3227      C3228   1.410       .  A
C3227      H3237   1.083       .  S
C3228      C3229   1.404       .  A
C3229      H3238   1.085       .  S
C3230      C3231   1.404       .  A
C3230      H3239   1.086       .  S
C3231      C3232   1.409       .  A
C3232      H3240   1.084       .  S
C3241      C3242   1.399       .  A
C3241      C3246   1.403       .  A
C3241      H3257   1.084       .  S
C3242      C3243   1.403       .  A
C3242      H3258   1.084       .  S
C3243      C3253   1.401       .  A
C3243      C3244   1.411       .  A
C3244      C3250   1.414       .  A
C3244      C3245   1.412       .  A
C3245      C3247   1.410       .  A
C3245      C3246   1.413       .  A
C3246      C3254   1.404       .  A
C3247      C3256   1.403       .  A
C3247      C3248   1.405       .  A
C3248      C3249   1.400       .  A
C3248      H3259   1.083       .  S
C3249      C3250   1.403       .  A
C3249      H3260   1.084       .  S
C3250      C3251   1.406       .  A
C3251      C3252   1.403       .  A
C3251      H3261   1.084       .  S
C3252      C3253   1.404       .  A
C3253      H3262   1.085       .  S
C3254      C3255   1.405       .  A
C3254      H3263   1.085       .  S
C3255      C3256   1.410       .  A
C3256      H3264   1.084       .  S
C3265      C3266   1.397       .  A
C3265      C3270   1.403       .  A
C3265      H3281   1.083       .  S
C3266      C3267   1.403       .  A
C3266      H3282   1.083       .  S
C3267      C3277   1.397       .  A
C3267      C3268   1.409       .  A
C3268      C3274   1.415       .  A
C3268      C3269   1.414       .  A
C3269      C3271   1.411       .  A
C3269      C3270   1.413       .  A
C3270      C3278   1.402       .  A
C3271      C3280   1.407       .  A
C3271      C3272   1.405       .  A
C3272      C3273   1.403       .  A
C3272      H3283   1.084       .  S
C3273      C3274   1.404       .  A
C3273      H3284   1.083       .  S
C3274      C3275   1.413       .  A
C3275      C3276   1.405       .  A
C3275      H3285   1.084       .  S
C3276      C3277   1.405       .  A
C3277      H3286   1.083       .  S
C3278      C3279   1.406       .  A
C3278      H3287   1.083       .  S
C3279      C3280   1.409       .  A
C3280      H3288   1.084       .  S
C3289      C3290   1.397       .  A
C3289      C3294   1.403       .  A
C3289      H3305   1.084       .  S
C3290      C3291   1.402       .  A
C3290      H3306   1.084       .  S
C3291      C3301   1.401       .  A
C3291      C3292   1.413       .  A
C3292      C3298   1.411       .  A
C3292      C3293   1.412       .  A
C3293      C3295   1.413       .  A
C3293      C3294   1.411       .  A
C3294      C3302   1.399       .  A
C3295      C3304   1.407       .  A
C3295      C3296   1.404       .  A
C3296      C3297   1.401       .  A
C3296      H3307   1.084       .  S
C3297      C3298   1.405       .  A
C3297      H3308   1.084       .  S
C3298      C3299   1.404       .  A
C3299      C3300   1.404       .  A
C3299      H3309   1.082       .  S
C3300      C3301   1.403       .  A
C3301      H3310   1.085       .  S
C3302      C3303   1.405       .  A
C3302      H3311   1.085       .  S
C3303      C3304   1.406       .  A
C3304      H3312   1.084       .  S
C3313      C3314   1.397       .  A
C3313      C3318   1.402       .  A
C3313      H3329   1.084       .  S
C3314      C3315   1.403       .  A
C3314      H3330   1.083       .  S
C3315      C3325   1.399       .  A
C3315      C3316   1.412       .  A
C3316      C3322   1.414       .  A
C3316      C3317   1.412       .  A
C3317      C3319   1.413       .  A
C3317      C3318   1.412       .  A
C3318      C3326   1.399       .  A
C3319      C3328   1.408       .  A
C3319      C3320   1.404       .  A
C3320      C3321   1.402       .  A
C3320      H3331   1.084       .  S
C3321      C3322   1.404       .  A
C3321      H3332   1.083       .  S
C3322      C3323   1.408       .  A
C3323      C3324   1.404       .  A
C3323      H3333   1.084       .  S
C3324      C3325   1.403       .  A
C3325      H3334   1.085       .  S
C3326      C3327   1.402       .  A
C3326      H3335   1.085       .  S
C3327      C3328   1.404       .  A
C3328      H3336   1.085       .  S
C3337      C3338   1.401       .  A
C3337      C3342   1.405       .  A
C3337      H3353   1.084       .  S
C3338      C3339   1.404       .  A
C3338      H3354   1.083       .  S
C3339      C3349   1.408       .  A
C3339      C3340   1.415       .  A
C3340      C3346   1.411       .  A
C3340      C3341   1.412       .  A
C3341      C3343   1.413       .  A
C3341      C3342   1.412       .  A
C3342      C3350   1.405       .  A
C3343      C3352   1.400       .  A
C3343      C3344   1.402       .  A
C3344      C3345   1.396       .  A
C3344      H3355   1.083       .  S
C3345      C3346   1.403       .  A
C3345      H3356   1.084       .  S
C3346      C3347   1.397       .  A
C3347      C3348   1.402       .  A
C3347      H3357   1.084       .  S
C3348      C3349   1.403       .  A
C3349      H3358   1.084       .  S
C3350      C3351   1.407       .  A
C3350      H3359   1.085       .  S
C3351      C3352   1.404       .  A
C3352      H3360   1.084       .  S
C3361      C3362   1.403   1_545  A
C3361      C3366   1.405       .  A
C3361      H3377   1.084       .  S
C3362      C3363   1.405       .  A
C3362      H3378   1.083       .  S
C3363      C3373   1.409       .  A
C3363      C3364   1.413       .  A
C3364      C3370   1.410       .  A
C3364      C3365   1.411   1_565  A
C3365      C3367   1.411       .  A
C3365      C3366   1.413       .  A
C3366      C3374   1.409       .  A
C3367      C3376   1.396       .  A
C3367      C3368   1.402       .  A
C3368      C3369   1.395   1_545  A
C3368      H3379   1.084       .  S
C3369      C3370   1.402       .  A
C3369      H3380   1.084       .  S
C3370      C3371   1.396       .  A
C3371      C3372   1.406       .  A
C3371      H3381   1.085       .  S
C3372      C3373   1.408       .  A
C3373      H3382   1.084       .  S
C3374      C3375   1.406       .  A
C3374      H3383   1.084       .  S
C3375      C3376   1.403       .  A
C3376      H3384   1.085       .  S
