geometry optimzed in LAMMPS
_audit_creation_date              2020-12-01 
_audit_creation_method            'lammps2cif' 
_symmetry_space_group_name_H-M    'P1' 
_symmetry_Int_Tables_number       1 
_symmetry_cell_setting            triclinic 
loop_ 
_symmetry_equiv_pos_as_xyz 
  x,y,z 
_cell_length_a                    25.65047978 
_cell_length_b                    25.477531004620243 
_cell_length_c                    33.767379867497084 
_cell_angle_alpha                 90.02494896354986 
_cell_angle_beta                  90.11069626502406 
_cell_angle_gamma                 90.4063392726581 
loop_ 
_atom_site_label 
_atom_site_type_symbol 
_atom_site_fract_x 
_atom_site_fract_y 
_atom_site_fract_z 
_atom_site_charge 
Zn1        Zn  0.21713372  0.40702198  0.41210324     1.49700
Zn2        Zn  0.14749855  0.33444437  0.35418533     1.49400
Zn3        Zn  0.26234979  0.32081328  0.35981563     1.49100
Zn4        Zn  0.18955578  0.28247367  0.43023226     1.49500
O5          O  0.20346718  0.33711760  0.39203435    -1.80000
O6          O  0.17615015  0.46080805  0.37693736    -0.70600
O7          O  0.16994036  0.29192485  0.30718445    -0.70400
O8          O  0.32612690  0.36232107  0.36910911    -0.70000
O9          O  0.13872806  0.40662661  0.33303044    -0.70600
O10         O  0.29175850  0.43017167  0.40043031    -0.70200
O11         O  0.24485884  0.33498464  0.30449530    -0.70800
O12         O  0.23013458  0.21595421  0.41330783    -0.70200
O13         O  0.08112363  0.30383376  0.37715267    -0.71000
O14         O  0.27830617  0.24536244  0.36295301    -0.70400
O15         O  0.11081550  0.26407094  0.43131942    -0.70800
O16         O  0.21242749  0.31309408  0.48356516    -0.70700
O17         O  0.21407635  0.40055126  0.47373948    -0.70500
C18         C  0.15232553  0.45246229  0.34395637     0.81300
C19         C  0.21117895  0.30520900  0.28885607     0.81800
C20         C  0.32983776  0.40813648  0.38321268     0.80700
C21         C  0.26262392  0.20842447  0.38514166     0.81100
C22         C  0.07349930  0.27563913  0.40778437     0.82200
C23         C  0.21831530  0.36009510  0.49643350     0.81300
Zn24       Zn  0.27858587  0.12696701  0.15678897     1.49700
Zn25       Zn  0.22554632  0.16079028  0.08168370     1.49400
Zn26       Zn  0.31450221  0.22989608  0.11403763     1.49100
Zn27       Zn  0.34690191  0.11896097  0.07955144     1.49500
O28         O  0.29302334  0.15747991  0.10656393    -1.80000
O29         O  0.21650793  0.07964288  0.15801474    -0.70600
O30         O  0.19874282  0.23458959  0.09153411    -0.70400
O31         O  0.29265518  0.25472855  0.16733930    -0.70000
O32         O  0.17267743  0.10941383  0.10616040    -0.70600
O33         O  0.26015386  0.18206282  0.19452152    -0.70200
O34         O  0.27269988  0.27718554  0.08025317    -0.70800
O35         O  0.41494905  0.16616732  0.07765440    -0.70200
O36         O  0.23733151  0.14444621  0.02409721    -0.71000
O37         O  0.39062674  0.24207822  0.10453416    -0.70400
O38         O  0.31665841  0.10761718  0.02143502    -0.70800
O39         O  0.36139260  0.05199057  0.11605143    -0.70700
O40         O  0.33721877  0.08489423  0.17454560    -0.70500
C41         C  0.17577181  0.08038389  0.13682366     0.81300
C42         C  0.22457915  0.27729684  0.08881354     0.81800
C43         C  0.26745599  0.23118479  0.19436771     0.80700
C44         C  0.42536376  0.21318629  0.08918476     0.81100
C45         C  0.27395196  0.12255226  0.00469024     0.82200
C46         C  0.35824693  0.04906313  0.15415407     0.81300
Zn47       Zn  0.42503312  0.01123093  0.37602116     1.49700
Zn48       Zn  0.40987633  0.89331216  0.39311675     1.49400
Zn49       Zn  0.33728455  0.95669936  0.33100676     1.49100
Zn50       Zn  0.45994776  0.92755908  0.31350095     1.49500
O51         O  0.40686850  0.94530533  0.35177285    -1.80000
O52         O  0.41199997  0.00599182  0.43269969    -0.70600
O53         O  0.33623853  0.87950198  0.41014476    -0.70400
O54         O  0.31121332  0.02961269  0.34595280    -0.70000
O55         O  0.44211797  0.92547033  0.44206327    -0.70600
O56         O  0.38311092  0.07353934  0.36145991    -0.70200
O57         O  0.28367216  0.91229934  0.36350729    -0.70800
O58         O  0.43166473  0.94880489  0.25967161    -0.70200
O59         O  0.45066581  0.82778709  0.37604497    -0.71000
O60         O  0.34528640  0.95698619  0.26928191    -0.70400
O61         O  0.47991838  0.85014526  0.31624030    -0.70800
O62         O  0.52722047  0.96646315  0.32761804    -0.70700
O63         O  0.50080602  0.02522753  0.37190374    -0.70500
C64         C  0.43144258  0.97123214  0.45469680     0.81300
C65         C  0.29086610  0.89035603  0.39731024     0.81800
C66         C  0.33416947  0.07172767  0.35653077     0.80700
C67         C  0.38580742  0.95839073  0.24674334     0.81100
C68         C  0.47610073  0.81717220  0.34453773     0.82200
C69         C  0.53663688  0.00312178  0.35237283     0.81300
Zn70       Zn  0.50528642  0.06395703  0.63659531     1.49700
Zn71       Zn  0.60241218  0.02398569  0.58835621     1.49400
Zn72       Zn  0.62083907  0.09718156  0.66374410     1.49100
Zn73       Zn  0.57485933  0.97742714  0.66906458     1.49500
O74         O  0.57775336  0.04236194  0.63992025    -1.80000
O75         O  0.47555176  0.04580042  0.58370560    -0.70600
O76         O  0.65633705  0.07264542  0.56967622    -0.70400
O77         O  0.57625003  0.16526286  0.66716956    -0.70000
O78         O  0.54474021  0.01707816  0.55076712    -0.70600
O79         O  0.49661449  0.13976634  0.64822808    -0.70200
O80         O  0.68574525  0.11059444  0.62515942    -0.70800
O81         O  0.59355697  0.99456623  0.72513212    -0.70200
O82         O  0.63577619  0.95440826  0.58661654    -0.71000
O83         O  0.63512529  0.07229203  0.72233990    -0.70400
O84         O  0.62259128  0.92152460  0.64656794    -0.70800
O85         O  0.50183736  0.94809442  0.66390718    -0.70700
O86         O  0.45868970  0.02219528  0.67165496    -0.70500
C87         C  0.49627763  0.02502571  0.55353239     0.81300
C88         C  0.68996044  0.10025368  0.58788221     0.81800
C89         C  0.52806342  0.17496148  0.66035577     0.80700
C90         C  0.61830565  0.03214528  0.74180155     0.81100
C91         C  0.64119333  0.91810803  0.61174287     0.82200
C92         C  0.45920949  0.97283247  0.66700730     0.81300
Zn93       Zn  0.95966868  0.92651550  0.18351928     1.49700
Zn94       Zn  0.91704136  0.90440413  0.09908245     1.49400
Zn95       Zn  0.84171490  0.96457211  0.15978414     1.49100
Zn96       Zn  0.94267506  0.02094735  0.13071854     1.49500
O97         O  0.91319580  0.95255235  0.14312054    -1.80000
O98         O  0.97158255  0.84807336  0.17834307    -0.70600
O99         O  0.84441374  0.89609081  0.07706572    -0.70400
O100        O  0.84263118  0.96016683  0.22132902    -0.70000
O101        O  0.94635864  0.83316938  0.11620565    -0.70600
O102        O  0.92651750  0.94403775  0.23622036    -0.70200
O103        O  0.79074890  0.91925151  0.12606665    -0.70800
O104        O  0.89146622  0.07766702  0.12453444    -0.70200
O105        O  0.96242693  0.93617798  0.05618460    -0.71000
O106        O  0.81816555  0.03818949  0.14300220    -0.70400
O107        O  0.97463023  0.01749852  0.07875379    -0.70800
O108        O  0.00218177  0.04265512  0.16465034    -0.70700
O109        O  0.03075567  0.96216569  0.17517316    -0.70500
C110        C  0.96622775  0.81742427  0.14877390     0.81300
C111        C  0.79863251  0.90189325  0.09092799     0.81800
C112        C  0.88000820  0.95538368  0.24652362     0.80700
C113        C  0.84251599  0.07756666  0.12867225     0.81100
C114        C  0.98071176  0.98256851  0.05271479     0.82200
C115        C  0.03944727  0.01072258  0.16878889     0.81300
Zn116      Zn  0.08311138  0.10341448  0.89144678     1.49700
Zn117      Zn  0.15872121  0.03750947  0.83208366     1.49400
Zn118      Zn  0.07267617  0.98638319  0.88096573     1.49100
Zn119      Zn  0.03525410  0.06430300  0.81275904     1.49500
O120        O  0.08866636  0.04931252  0.85168498    -1.80000
O121        O  0.15558516  0.11428769  0.91254982    -0.70600
O122        O  0.18449936  0.96357733  0.84532405    -0.70400
O123        O  0.08403789  0.99911012  0.93747660    -0.70000
O124        O  0.21042664  0.08120651  0.86754232    -0.70600
O125        O  0.04178317  0.07434857  0.93752639    -0.70200
O126        O  0.11542254  0.92345370  0.87062659    -0.70800
O127        O  0.96952489  0.02247238  0.82811575    -0.70200
O128        O  0.15241721  0.03833708  0.76993560    -0.71000
O129        O  0.99770923  0.96978627  0.87623853    -0.70400
O130        O  0.06585525  0.04235032  0.75921113    -0.70800
O131        O  0.01373277  0.14260606  0.81377218    -0.70700
O132        O  0.04733376  0.17027207  0.87097714    -0.70500
C133        C  0.20154360  0.10300266  0.90123181     0.81300
C134        C  0.16268334  0.92305899  0.86002523     0.81800
C135        C  0.05389568  0.03122702  0.95400626     0.80700
C136        C  0.96138502  0.98788256  0.85484289     0.81100
C137        C  0.11240312  0.03477125  0.74680524     0.82200
C138        C  0.02040451  0.17861717  0.83974071     0.81300
Zn139      Zn  0.78691508  0.07787589  0.41089698     1.49700
Zn140      Zn  0.85704616  0.15118923  0.35286512     1.49400
Zn141      Zn  0.74261752  0.15811817  0.35242409     1.49100
Zn142      Zn  0.80931807  0.20358732  0.42571819     1.49500
O143        O  0.79922289  0.14687525  0.38864360    -1.80000
O144        O  0.83321387  0.02529847  0.37973490    -0.70600
O145        O  0.83642754  0.19523070  0.30574704    -0.70400
O146        O  0.68196210  0.11168932  0.35823227    -0.70000
O147        O  0.86762374  0.07857828  0.33369432    -0.70600
O148        O  0.71422055  0.04960536  0.39684593    -0.70200
O149        O  0.76536936  0.14753289  0.29758556    -0.70800
O150        O  0.76530035  0.26562015  0.40594343    -0.70200
O151        O  0.92142964  0.18301563  0.37755684    -0.71000
O152        O  0.71975829  0.23137404  0.35560820    -0.70400
O153        O  0.88728505  0.22623218  0.42846510    -0.70800
O154        O  0.78483852  0.17548940  0.47933679    -0.70700
O155        O  0.78546822  0.08767902  0.47237500    -0.70500
C156        C  0.85633832  0.03293960  0.34647541     0.81300
C157        C  0.79693446  0.18193317  0.28525612     0.81800
C158        C  0.67778102  0.06785796  0.37537767     0.80700
C159        C  0.73240848  0.26971682  0.37756957     0.81100
C160        C  0.92638111  0.21388812  0.40698087     0.82200
C161        C  0.77905070  0.12922935  0.49355968     0.81300
Zn162      Zn  0.72893777  0.36539920  0.15244501     1.41700
Zn163      Zn  0.65154293  0.37229826  0.07884394     1.49400
Zn164      Zn  0.77036856  0.32467584  0.07509959     1.49100
Zn165      Zn  0.68341908  0.26162295  0.11599832     1.49500
O166        O  0.70645211  0.33273053  0.10437591    -1.80000
O167        O  0.67621393  0.41327585  0.17246825    -0.70600
O168        O  0.67807253  0.38236138  0.01937324    -0.70400
O169        O  0.82677304  0.37734525  0.09205883    -0.70000
O170        O  0.63856201  0.43980548  0.11613814    -0.70600
O171        O  0.79213487  0.40956442  0.14686928    -0.70200
O172        O  0.75281382  0.33687295  0.01796625    -0.70800
O173        O  0.72160740  0.20952899  0.08356491    -0.70200
O174        O  0.58342828  0.32535776  0.07794328    -0.71000
O175        O  0.79735533  0.25134785  0.08684550    -0.70400
O176        O  0.60670453  0.25069597  0.10734928    -0.70800
O177        O  0.70752545  0.24025626  0.17005281    -0.70700
O178        O  0.74929813  0.31175992  0.19133789    -0.70500
C179        C  0.64852157  0.44574035  0.15346143     0.81300
C180        C  0.71704516  0.36259165  0.00042468     0.81800
C181        C  0.82865032  0.40799710  0.12186173     0.80700
C182        C  0.77066451  0.20904916  0.08816701     0.81100
C183        C  0.57249216  0.27902230  0.09062033     0.82200
C184        C  0.73787757  0.26351254  0.19422675     0.81300
Zn185      Zn  0.84428569  0.62515014  0.57725358     1.49700
Zn186      Zn  0.77084228  0.64113982  0.65241047     1.49400
Zn187      Zn  0.81366915  0.74071902  0.60798807     1.49100
Zn188      Zn  0.72623222  0.67122268  0.57217850     1.49500
O189        O  0.79060587  0.66803086  0.60171932    -1.80000
O190        O  0.85514835  0.55790703  0.61555135    -0.70600
O191        O  0.76200870  0.69762924  0.69071376    -0.70400
O192        O  0.88874146  0.75041485  0.59421562    -0.70000
O193        O  0.81847866  0.58730934  0.67125603    -0.70600
O194        O  0.91302287  0.67040246  0.57495315    -0.70200
O195        O  0.79933222  0.76709875  0.66251198    -0.70800
O196        O  0.69671345  0.74336650  0.57975870    -0.70200
O197        O  0.70200060  0.60662900  0.65277536    -0.71000
O198        O  0.76953225  0.79063633  0.57758334    -0.70400
O199        O  0.67007790  0.62175198  0.59288810    -0.70800
O200        O  0.74280477  0.65638834  0.51533702    -0.70700
O201        O  0.81915060  0.61408667  0.51757795    -0.70500
C202        C  0.84450041  0.55304972  0.65282321     0.81300
C203        C  0.77406706  0.74577466  0.69050557     0.81800
C204        C  0.92332586  0.71897576  0.58183959     0.80700
C205        C  0.72024497  0.78737985  0.58003822     0.81100
C206        C  0.66606793  0.60207548  0.62738831     0.82200
C207        C  0.77985538  0.63235810  0.49814425     0.81300
Zn208      Zn  0.70925888  0.91862524  0.90899714     1.49700
Zn209      Zn  0.67648256  0.79684276  0.93163102     1.49400
Zn210      Zn  0.64421786  0.84394563  0.84932180     1.49100
Zn211      Zn  0.76270608  0.82439105  0.86939605     1.49500
O212        O  0.69660922  0.84677276  0.89063403    -1.80000
O213        O  0.70981170  0.91608388  0.97026777    -0.70600
O214        O  0.59884349  0.77665067  0.92761221    -0.70400
O215        O  0.63025228  0.91756828  0.83200088    -0.70000
O216        O  0.69726416  0.83064946  0.98422270    -0.70600
O217        O  0.66502445  0.97171228  0.87705230    -0.70200
O218        O  0.57864125  0.80406903  0.86683158    -0.70800
O219        O  0.75836854  0.82287216  0.81216988    -0.70200
O220        O  0.71558222  0.72754139  0.92388101    -0.71000
O221        O  0.67384710  0.81107159  0.79999230    -0.70400
O222        O  0.77936674  0.75117776  0.88306187    -0.70800
O223        O  0.82355973  0.87086089  0.87831567    -0.70700
O224        O  0.78183107  0.94394071  0.89332996    -0.70500
C225        C  0.70927334  0.87747584  0.99474824     0.81300
C226        C  0.56682408  0.77973027  0.89866971     0.81800
C227        C  0.64142395  0.96357588  0.84411497     0.80700
C228        C  0.72128565  0.81172845  0.78903980     0.81100
C229        C  0.75573639  0.71670192  0.90331892     0.82200
C230        C  0.82286908  0.92013737  0.88274602     0.81300
Zn231      Zn  0.64002226  0.50733781  0.39303646     1.49700
Zn232      Zn  0.57476387  0.47773524  0.32473679     1.49400
Zn233      Zn  0.54136896  0.56818983  0.38522957     1.49100
Zn234      Zn  0.63554545  0.59304591  0.32657404     1.49500
O235        O  0.59715466  0.53863609  0.35432998    -1.80000
O236        O  0.67911275  0.44609056  0.37632244    -0.70600
O237        O  0.49982827  0.45996768  0.33852768    -0.70400
O238        O  0.55378168  0.55850997  0.44338282    -0.70000
O239        O  0.61845484  0.41239199  0.33701034    -0.70600
O240        O  0.59754419  0.48417483  0.43732727    -0.70200
O241        O  0.47633936  0.52642429  0.37744232    -0.70800
O242        O  0.58953382  0.66081013  0.32632390    -0.70200
O243        O  0.58573435  0.49452356  0.26749435    -0.71000
O244        O  0.52778256  0.64317282  0.37090663    -0.70400
O245        O  0.64136422  0.56324065  0.26742270    -0.70800
O246        O  0.70368643  0.61057493  0.36230034    -0.70700
O247        O  0.69007282  0.55656025  0.41324094    -0.70500
C248        C  0.66041660  0.40807498  0.35695374     0.81300
C249        C  0.46658964  0.48312515  0.36030366     0.81800
C250        C  0.56820677  0.51425096  0.45671700     0.80700
C251        C  0.54920173  0.67423177  0.34625863     0.81100
C252        C  0.61606811  0.52617803  0.24928514     0.82200
C253        C  0.71484942  0.59396661  0.39746880     0.81300
Zn254      Zn  0.38933826  0.47359867  0.58954076     1.49700
Zn255      Zn  0.41846304  0.52101422  0.66845273     1.49400
Zn256      Zn  0.37395788  0.40020067  0.66614016     1.49100
Zn257      Zn  0.48734183  0.43214088  0.63747905     1.49500
O258        O  0.41516525  0.45498516  0.64077455    -1.80000
O259        O  0.35668031  0.54424810  0.58658560    -0.70600
O260        O  0.40513062  0.50475310  0.72561737    -0.70400
O261        O  0.30808360  0.38563581  0.62869948    -0.70000
O262        O  0.36886108  0.57667152  0.64678561    -0.70600
O263        O  0.33507554  0.42425311  0.57278492    -0.70200
O264        O  0.36445825  0.42636440  0.72510928    -0.70800
O265        O  0.49755685  0.35759288  0.65197019    -0.70200
O266        O  0.49044507  0.55064383  0.65941830    -0.71000
O267        O  0.41760785  0.33139498  0.66866875    -0.70400
O268        O  0.53585707  0.47793200  0.66784747    -0.70800
O269        O  0.51428007  0.44275412  0.58323504    -0.70700
O270        O  0.44643955  0.47664033  0.55127949    -0.70500
C271        C  0.35085597  0.58058252  0.61171674     0.81300
C272        C  0.38262001  0.46687152  0.74361488     0.81800
C273        C  0.30289306  0.39554926  0.59140681     0.80700
C274        C  0.46596995  0.32195283  0.66277200     0.81100
C275        C  0.53373480  0.52690943  0.66151271     0.82200
C276        C  0.49396811  0.46394803  0.55308513     0.81300
Zn277      Zn  0.26923166  0.83119179  0.57477553     1.49700
Zn278      Zn  0.18059989  0.76026570  0.60316481     1.49400
Zn279      Zn  0.21880972  0.85873930  0.65357833     1.49100
Zn280      Zn  0.14938747  0.87619060  0.57616457     1.49500
O281        O  0.20285641  0.83360180  0.60137707    -1.80000
O282        O  0.29857520  0.75803867  0.58194249    -0.70600
O283        O  0.19207998  0.73188777  0.65674847    -0.70400
O284        O  0.28843531  0.89259225  0.65804514    -0.70000
O285        O  0.22634508  0.71162906  0.57271878    -0.70600
O286        O  0.32356805  0.88019080  0.59889608    -0.70200
O287        O  0.22230776  0.80035425  0.69092557    -0.70800
O288        O  0.13577119  0.94237328  0.61450044    -0.70200
O289        O  0.10585010  0.75021274  0.58928785    -0.71000
O290        O  0.16991577  0.91249628  0.67104198    -0.70400
O291        O  0.08056540  0.83096817  0.57308651    -0.70800
O292        O  0.17732241  0.88856747  0.51751743    -0.70700
O293        O  0.25533029  0.84899127  0.51796008    -0.70500
C294        C  0.27512752  0.71407196  0.57896077     0.81300
C295        C  0.21192139  0.75195634  0.68759500     0.81800
C296        C  0.32573033  0.89839604  0.63397954     0.80700
C297        C  0.14409535  0.94652758  0.65215225     0.81100
C298        C  0.07061798  0.78209956  0.57886647     0.82200
C299        C  0.21862070  0.87228087  0.49961813     0.81300
Zn300      Zn  0.23011270  0.67530327  0.91376582     1.49700
Zn301      Zn  0.31927098  0.70916570  0.85312142     1.49400
Zn302      Zn  0.34582500  0.61516242  0.91108542     1.49100
Zn303      Zn  0.25754809  0.60494003  0.84726218     1.49500
O304        O  0.28993770  0.65205487  0.88376351    -1.80000
O305        O  0.21829514  0.75370431  0.90637667    -0.70600
O306        O  0.39388237  0.72522375  0.86815579    -0.70400
O307        O  0.31766603  0.60447222  0.96886993    -0.70000
O308        O  0.27764605  0.77436729  0.86087040    -0.70600
O309        O  0.24488216  0.65344845  0.97016917    -0.70200
O310        O  0.41144247  0.66391159  0.91320535    -0.70800
O311        O  0.30422408  0.55091680  0.83016842    -0.70200
O312        O  0.30962026  0.69575466  0.79526024    -0.71000
O313        O  0.36597014  0.54793805  0.87649316    -0.70400
O314        O  0.23936552  0.64452807  0.80026770    -0.70800
O315        O  0.19161361  0.57168129  0.86292744    -0.70700
O316        O  0.16154499  0.64178095  0.89358185    -0.70500
C317        C  0.23864218  0.78614790  0.88205211     0.81300
C318        C  0.42446420  0.70494371  0.89353776     0.81800
C319        C  0.27877052  0.62471327  0.98738990     0.80700
C320        C  0.34540763  0.53131329  0.84395047     0.81100
C321        C  0.26731458  0.67688406  0.78142475     0.82200
C322        C  0.15389824  0.59908144  0.87474577     0.81300
Zn323      Zn  0.90248711  0.52597965  0.82770856     1.49700
Zn324      Zn  0.97410079  0.43903173  0.85748211     1.49400
Zn325      Zn  0.87492921  0.47644239  0.90563157     1.49100
Zn326      Zn  0.86118584  0.40468712  0.82771967     1.49500
O327        O  0.90123545  0.45924558  0.85418467    -1.80000
O328        O  0.97248532  0.55896931  0.83981640    -0.70600
O329        O  0.00076748  0.45244628  0.91160307    -0.70400
O330        O  0.83534930  0.54369599  0.90791990    -0.70000
O331        O  0.02011535  0.48867340  0.82753231    -0.70600
O332        O  0.84775922  0.57650414  0.84793355    -0.70200
O333        O  0.93242192  0.48436521  0.94394105    -0.70800
O334        O  0.79437221  0.39089766  0.86509955    -0.70200
O335        O  0.98586821  0.36261916  0.84474599    -0.71000
O336        O  0.82444331  0.42356423  0.92242689    -0.70400
O337        O  0.90623629  0.33553622  0.82737341    -0.70800
O338        O  0.85258158  0.43310507  0.76802644    -0.70700
O339        O  0.89184163  0.51210861  0.77011904    -0.70500
C340        C  0.01658541  0.53684943  0.83702748     0.81300
C341        C  0.98046406  0.47363923  0.94172493     0.81800
C342        C  0.82728045  0.57883144  0.88217495     0.80700
C343        C  0.79043817  0.39804632  0.90292265     0.81100
C344        C  0.95447935  0.32608471  0.83457865     0.82200
C345        C  0.87007878  0.47500087  0.75074394     0.81300
Zn346      Zn  0.09035057  0.59431174  0.09846153     1.49700
Zn347      Zn  0.04497496  0.55804563  0.17981782     1.49400
Zn348      Zn  0.07430293  0.47946970  0.11206305     1.49100
Zn349      Zn  0.16616579  0.52702996  0.15527521     1.49500
O350        O  0.09524767  0.54197122  0.13907804    -1.80000
O351        O  0.05415312  0.65981491  0.11750823    -0.70600
O352        O  0.97749441  0.51519885  0.16964564    -0.70400
O353        O  0.08740023  0.48693047  0.05530164    -0.70000
O354        O  0.02347454  0.63583340  0.17656015    -0.70600
O355        O  0.05049430  0.56494305  0.05225604    -0.70200
O356        O  0.99928537  0.46721876  0.11720813    -0.70800
O357        O  0.18662833  0.45280176  0.13739625    -0.70200
O358        O  0.08094038  0.54003106  0.23233087    -0.71000
O359        O  0.11026765  0.41464713  0.12636001    -0.70400
O360        O  0.16551376  0.52837217  0.21709474    -0.70800
O361        O  0.21751930  0.57220823  0.12174510    -0.70700
O362        O  0.16221548  0.60770424  0.07817936    -0.70500
C363        C  0.02880213  0.66983794  0.14898599     0.81300
C364        C  0.96589114  0.48292820  0.14192691     0.81800
C365        C  0.06071817  0.52059162  0.03707826     0.80700
C366        C  0.15936716  0.41269665  0.12800384     0.81100
C367        C  0.12808375  0.53020341  0.24243781     0.82200
C368        C  0.20827233  0.59654848  0.08924306     0.81300
C369        C  0.01322088  0.48908921  0.97335096    -0.09100
C370        C  0.03765539  0.50547962  0.00082724    -0.10700
C371        C  0.06261353  0.56454885  0.84967610    -0.09100
C372        C  0.10237584  0.58262372  0.86334964    -0.10700
C373        C  0.24923503  0.60734096  0.06091875    -0.09100
C374        C  0.27015621  0.61421654  0.02907521    -0.10700
C375        C  0.22784367  0.71863629  0.71845987    -0.09100
C376        C  0.24752510  0.69611230  0.74541375    -0.10700
C377        C  0.30293767  0.66655760  0.58750080    -0.09100
C378        C  0.32449140  0.62745242  0.59918232    -0.10700
C379        C  0.37666102  0.47283349  0.78615799    -0.09100
C380        C  0.36875492  0.49252626  0.81839443    -0.10700
C381        C  0.52609408  0.47800950  0.52096870    -0.09100
C382        C  0.54821000  0.49572425  0.49297896    -0.10700
C383        C  0.47505214  0.72979864  0.89957737    -0.09100
C384        C  0.51662686  0.75305227  0.90104568    -0.10700
C385        C  0.79624074  0.62334362  0.89284204    -0.09100
C386        C  0.77477468  0.66400568  0.90072666    -0.10700
C387        C  0.01807558  0.76124102  0.57521654    -0.09100
C388        C  0.97547145  0.74010507  0.57633175    -0.10700
C389        C  0.86444285  0.48421546  0.70821593    -0.09100
C390        C  0.85973237  0.50843581  0.67717519    -0.10700
C391        C  0.75500856  0.77687523  0.72189623    -0.09100
C392        C  0.73555291  0.79617161  0.75043874    -0.10700
C393        C  0.58064240  0.55447635  0.65173460    -0.09100
C394        C  0.61934014  0.57569407  0.63934888    -0.10700
C395        C  0.77412027  0.62491139  0.45551448    -0.09100
C396        C  0.75433866  0.61679455  0.42317936    -0.10700
C397        C  0.62366031  0.51496512  0.20734230    -0.09100
C398        C  0.63049230  0.48982671  0.17703133    -0.10700
C399        C  0.91401331  0.46258839  0.13728815    -0.09100
C400        C  0.87403800  0.43977802  0.12920739    -0.10700
C401        C  0.72466596  0.37100391  0.95809001    -0.09100
C402        C  0.74721738  0.37901210  0.92685527    -0.10700
C403        C  0.68619861  0.35881377  0.36063942    -0.09100
C404        C  0.70844921  0.31892231  0.36902859    -0.10700
C405        C  0.78297282  0.20986065  0.25058210    -0.09100
C406        C  0.76235734  0.23403195  0.22459544    -0.10700
C407        C  0.99553254  0.22965653  0.83444814    -0.09100
C408        C  0.97484387  0.27267082  0.83270906    -0.10700
C409        C  0.86911275  0.94927824  0.87307551    -0.09100
C410        C  0.90968372  0.96906502  0.86277400    -0.10700
C411        C  0.21476267  0.83633341  0.87571162    -0.09100
C412        C  0.19242744  0.87638070  0.86723926    -0.10700
C413        C  0.12627282  0.99024180  0.67628352    -0.09100
C414        C  0.11920589  0.01631667  0.70614320    -0.10700
C415        C  0.98533345  0.76419511  0.15176835    -0.09100
C416        C  0.00455202  0.72080197  0.15247761    -0.10700
C417        C  0.75553119  0.89172298  0.06406793    -0.09100
C418        C  0.72868888  0.88576828  0.03467956    -0.10700
C419        C  0.81462011  0.12241050  0.11434220    -0.09100
C420        C  0.79497519  0.16103759  0.10020012    -0.10700
C421        C  0.86549815  0.99044308  0.31914670    -0.09100
C422        C  0.87093434  0.96809973  0.28771655    -0.10700
C423        C  0.03025020  0.01544356  0.98998237    -0.09100
C424        C  0.00843823  0.99775328  0.01829982    -0.10700
C425        C  0.48651518  0.26957264  0.66674329    -0.09100
C426        C  0.50738277  0.22706156  0.66576717    -0.10700
C427        C  0.41106110  0.94585621  0.65958202    -0.09100
C428        C  0.37186304  0.92473306  0.64774056    -0.10700
C429        C  0.75975720  0.12414686  0.53396891    -0.09100
C430        C  0.73337161  0.11783333  0.56359320    -0.10700
C431        C  0.66831828  0.87201156  0.59949885    -0.09100
C432        C  0.69121950  0.83389000  0.58797517    -0.10700
C433        C  0.62749720  0.02639954  0.78398029    -0.09100
C434        C  0.63240448  0.00569465  0.81618652    -0.10700
C435        C  0.50301325  0.76730804  0.34149798    -0.09100
C436        C  0.52609812  0.72574951  0.34151099    -0.10700
C437        C  0.22661948  0.87993477  0.45730438    -0.09100
C438        C  0.24840755  0.88313517  0.42532429    -0.10700
C439        C  0.58914984  0.01975631  0.35991294    -0.09100
C440        C  0.63084512  0.03844638  0.36868036    -0.10700
C441        C  0.44558878  0.98692296  0.49340745    -0.09100
C442        C  0.46443841  0.00633146  0.52229661    -0.10700
C443        C  0.52025708  0.25687947  0.08632875    -0.09100
C444        C  0.47770435  0.23526645  0.08574037    -0.10700
C445        C  0.20135957  0.32556828  0.10123321    -0.09100
C446        C  0.18385789  0.36523623  0.11524555    -0.10700
C447        C  0.37512013  0.00408634  0.17688582    -0.09100
C448        C  0.38073267  0.97700195  0.20623267    -0.10700
C449        C  0.09146772  0.02961836  0.16124297    -0.09100
C450        C  0.13120728  0.05021451  0.14965509    -0.10700
C451        C  0.24275657  0.11055469  0.93044900    -0.09100
C452        C  0.26440390  0.11466669  0.96251176    -0.10700
C453        C  0.97752284  0.23657293  0.41449705    -0.09100
C454        C  0.02144011  0.25483574  0.41456452    -0.10700
C455        C  0.13816143  0.51610594  0.28351868    -0.09100
C456        C  0.14420338  0.49389006  0.31511752    -0.10700
C457        C  0.30414472  0.11745361  0.36612306    -0.09100
C458        C  0.28265516  0.15705331  0.37677705    -0.10700
C459        C  0.22404140  0.28246676  0.25210008    -0.09100
C460        C  0.24403471  0.26080359  0.22481113    -0.10700
C461        C  0.37742995  0.43643680  0.37688561    -0.09100
C462        C  0.41748998  0.45834385  0.36813535    -0.10700
C463        C  0.23527399  0.36727148  0.53726241    -0.09100
C464        C  0.26026496  0.37562972  0.56733341    -0.10700
loop_ 
_geom_bond_atom_site_label_1 
_geom_bond_atom_site_label_2 
_geom_bond_distance 
_geom_bond_site_symmetry_2 
_ccdc_geom_bond_type 
Zn1           O5   1.935       .  S
Zn1           O6   2.100       .  S
Zn1          O10   2.038       .  S
Zn1          O17   2.089       .  S
Zn2           O5   1.921       .  S
Zn2           O7   2.009       .  S
Zn2           O9   1.987       .  S
Zn2          O13   2.024       .  S
Zn3           O5   1.911       .  S
Zn3           O8   1.966       .  S
Zn3          O11   1.955       .  S
Zn3          O14   1.971       .  S
Zn4           O5   1.930       .  S
Zn4          O12   2.076       .  S
Zn4          O15   2.071       .  S
Zn4          O16   2.046       .  S
O6           C18   1.286       .  A
O7           C19   1.270       .  A
O8           C20   1.263       .  A
O9           C18   1.271       .  A
O10          C20   1.272       .  A
O11          C19   1.261       .  A
O12          C21   1.281       .  A
O13          C22   1.274       .  A
O14          C21   1.267       .  A
O15          C22   1.279       .  A
O16          C23   1.282       .  A
O17          C23   1.290       .  A
C18         C456   1.452       .  S
C19         C459   1.410       .  S
C20         C461   1.430       .  S
C21         C458   1.438       .  S
C22         C454   1.452       .  S
C23         C463   1.456       .  S
Zn24         O28   1.902       .  S
Zn24         O29   1.991       .  S
Zn24         O33   1.956       .  S
Zn24         O40   1.947       .  S
Zn25         O28   1.925       .  S
Zn25         O30   2.034       .  S
Zn25         O32   2.053       .  S
Zn25         O36   2.012       .  S
Zn26         O28   1.938       .  S
Zn26         O31   1.990       .  S
Zn26         O34   1.979       .  S
Zn26         O37   2.001       .  S
Zn27         O28   1.931       .  S
Zn27         O35   2.114       .  S
Zn27         O38   2.128       .  S
Zn27         O39   2.140       .  S
O29          C41   1.266       .  A
O30          C42   1.273       .  A
O31          C43   1.268       .  A
O32          C41   1.275       .  A
O33          C43   1.264       .  A
O34          C42   1.268       .  A
O35          C44   1.286       .  A
O36          C45   1.278       .  A
O37          C44   1.271       .  A
O38          C45   1.292       .  A
O39          C46   1.291       .  A
O40          C46   1.267       .  A
C41         C450   1.440       .  S
C42         C445   1.433       .  S
C43         C460   1.413       .  S
C44         C444   1.457       .  S
C45         C452   1.458   1_554  S
C46         C447   1.448       .  S
Zn47         O51   1.922   1_545  S
Zn47         O52   1.948       .  S
Zn47         O56   1.985       .  S
Zn47         O63   1.979       .  S
Zn48         O51   1.927       .  S
Zn48         O53   2.004       .  S
Zn48         O55   2.018       .  S
Zn48         O59   2.059       .  S
Zn49         O51   1.940       .  S
Zn49         O54   2.042   1_565  S
Zn49         O57   2.088       .  S
Zn49         O60   2.095       .  S
Zn50         O51   1.935       .  S
Zn50         O58   2.031       .  S
Zn50         O61   2.043       .  S
Zn50         O62   2.039       .  S
O52          C64   1.261   1_545  A
O53          C65   1.273       .  A
O54          C66   1.271       .  A
O55          C64   1.273       .  A
O56          C66   1.267       .  A
O57          C65   1.285       .  A
O58          C67   1.279       .  A
O59          C68   1.279       .  A
O60          C67   1.290       .  A
O61          C68   1.276       .  A
O62          C69   1.275   1_565  A
O63          C69   1.267       .  A
C64         C441   1.413       .  S
C65         C438   1.455       .  S
C66         C457   1.438       .  S
C67         C448   1.454       .  S
C68         C435   1.454       .  S
C69         C439   1.432       .  S
Zn70         O74   1.945       .  S
Zn70         O75   1.994       .  S
Zn70         O79   1.985       .  S
Zn70         O86   1.988       .  S
Zn71         O74   1.913       .  S
Zn71         O76   1.956       .  S
Zn71         O78   1.954       .  S
Zn71         O82   1.975   1_545  S
Zn72         O74   1.948       .  S
Zn72         O77   2.088       .  S
Zn72         O80   2.142       .  S
Zn72         O83   2.110       .  S
Zn73         O74   1.926   1_565  S
Zn73         O81   1.999       .  S
Zn73         O84   2.033       .  S
Zn73         O85   2.019       .  S
O75          C87   1.267       .  A
O76          C88   1.267       .  A
O77          C89   1.283       .  A
O78          C87   1.265       .  A
O79          C89   1.269       .  A
O80          C88   1.291       .  A
O81          C90   1.275   1_565  A
O82          C91   1.264       .  A
O83          C90   1.288       .  A
O84          C91   1.273       .  A
O85          C92   1.270       .  A
O86          C92   1.267   1_545  A
C87         C442   1.413       .  S
C88         C430   1.453       .  S
C89         C426   1.445       .  S
C90         C433   1.451       .  S
C91         C431   1.431       .  S
C92         C427   1.431       .  S
Zn93         O97   1.931       .  S
Zn93         O98   2.031       .  S
Zn93        O102   2.025       .  S
Zn93        O109   2.051   1_655  S
Zn94         O97   1.930       .  S
Zn94         O99   2.014       .  S
Zn94        O101   2.052       .  S
Zn94        O105   2.026       .  S
Zn95         O97   1.945       .  S
Zn95        O100   2.081       .  S
Zn95        O103   2.076       .  S
Zn95        O106   2.054   1_565  S
Zn96         O97   1.941   1_545  S
Zn96        O104   1.971       .  S
Zn96        O107   1.940       .  S
Zn96        O108   1.982   1_655  S
O98         C110   1.274       .  A
O99         C111   1.275       .  A
O100        C112   1.287       .  A
O101        C110   1.277       .  A
O102        C112   1.278       .  A
O103        C111   1.283       .  A
O104        C113   1.264       .  A
O105        C114   1.274       .  A
O106        C113   1.274       .  A
O107        C114   1.261   1_545  A
O108        C115   1.267       .  A
O109        C115   1.274   1_565  A
C110        C415   1.449       .  S
C111        C417   1.450       .  S
C112        C422   1.448       .  S
C113        C419   1.436       .  S
C114        C424   1.416   1_655  S
C115        C449   1.439       .  S
Zn116       O120   1.930       .  S
Zn116       O121   2.007       .  S
Zn116       O125   2.022       .  S
Zn116       O132   2.060       .  S
Zn117       O120   1.942       .  S
Zn117       O122   2.050   1_545  S
Zn117       O124   2.099       .  S
Zn117       O128   2.105       .  S
Zn118       O120   1.926   1_565  S
Zn118       O123   1.956       .  S
Zn118       O126   1.980       .  S
Zn118       O129   1.972   1_455  S
Zn119       O120   1.937       .  S
Zn119       O127   2.056   1_455  S
Zn119       O130   2.052       .  S
Zn119       O131   2.074       .  S
O121        C133   1.275       .  A
O122        C134   1.272       .  A
O123        C135   1.261   1_565  A
O124        C133   1.287       .  A
O125        C135   1.272       .  A
O126        C134   1.265       .  A
O127        C136   1.278   1_545  A
O128        C137   1.291       .  A
O129        C136   1.267       .  A
O130        C137   1.282       .  A
O131        C138   1.279       .  A
O132        C138   1.278       .  A
C133        C451   1.456       .  S
C134        C412   1.438       .  S
C135        C423   1.416       .  S
C136        C410   1.433       .  S
C137        C414   1.462       .  S
C138        C407   1.463   1_455  S
Zn139       O143   1.936       .  S
Zn139       O144   2.083       .  S
Zn139       O148   2.049       .  S
Zn139       O155   2.091       .  S
Zn140       O143   1.917       .  S
Zn140       O145   2.019       .  S
Zn140       O147   1.980       .  S
Zn140       O151   2.014       .  S
Zn141       O143   1.920       .  S
Zn141       O146   1.958       .  S
Zn141       O149   1.962       .  S
Zn141       O152   1.963       .  S
Zn142       O143   1.927       .  S
Zn142       O150   2.060       .  S
Zn142       O153   2.079       .  S
Zn142       O154   2.045       .  S
O144        C156   1.285       .  A
O145        C157   1.270       .  A
O146        C158   1.262       .  A
O147        C156   1.272       .  A
O148        C158   1.273       .  A
O149        C157   1.260       .  A
O150        C159   1.280       .  A
O151        C160   1.273       .  A
O152        C159   1.266       .  A
O153        C160   1.280       .  A
O154        C161   1.281       .  A
O155        C161   1.289       .  A
C156        C421   1.443   1_545  S
C157        C405   1.417       .  S
C158        C440   1.431       .  S
C159        C404   1.429       .  S
C160        C453   1.452       .  S
C161        C429   1.458       .  S
Zn162       O166   1.910       .  S
Zn162       O167   1.949       .  S
Zn162       O171   1.976       .  S
Zn162       O178   1.968       .  S
Zn163       O166   1.939       .  S
Zn163       O168   2.137       .  S
Zn163       O170   2.159       .  S
Zn163       O174   2.110       .  S
Zn164       O166   1.928       .  S
Zn164       O169   2.047       .  S
Zn164       O172   2.005       .  S
Zn164       O175   2.036       .  S
Zn165       O166   1.942       .  S
Zn165       O173   1.985       .  S
Zn165       O176   2.006       .  S
Zn165       O177   2.003       .  S
O167        C179   1.268       .  A
O168        C180   1.293       .  A
O169        C181   1.274       .  A
O170        C179   1.294       .  A
O171        C181   1.263       .  A
O172        C180   1.276       .  A
O173        C182   1.268       .  A
O174        C183   1.285       .  A
O175        C182   1.273       .  A
O176        C183   1.272       .  A
O177        C184   1.270       .  A
O178        C184   1.265       .  A
C179        C398   1.455       .  S
C180        C401   1.459   1_554  S
C181        C400   1.435       .  S
C182        C420   1.435       .  S
C183        C443   1.457       .  S
C184        C406   1.419       .  S
Zn185       O189   1.949       .  S
Zn185       O190   2.166       .  S
Zn185       O194   2.101       .  S
Zn185       O201   2.133       .  S
Zn186       O189   1.912       .  S
Zn186       O191   1.949       .  S
Zn186       O193   1.949       .  S
Zn186       O197   1.967       .  S
Zn187       O189   1.951       .  S
Zn187       O192   1.996       .  S
Zn187       O195   1.995       .  S
Zn187       O198   1.993       .  S
Zn188       O189   1.930       .  S
Zn188       O196   2.009       .  S
Zn188       O199   2.033       .  S
Zn188       O200   2.003       .  S
O190        C202   1.294       .  A
O191        C203   1.263       .  A
O192        C204   1.271       .  A
O193        C202   1.267       .  A
O194        C204   1.285       .  A
O195        C203   1.267       .  A
O196        C205   1.270       .  A
O197        C206   1.262       .  A
O198        C205   1.269       .  A
O199        C206   1.273       .  A
O200        C207   1.275       .  A
O201        C207   1.291       .  A
C202        C390   1.458       .  S
C203        C391   1.413       .  S
C204        C388   1.451       .  S
C205        C432   1.429       .  S
C206        C394   1.429       .  S
C207        C395   1.459       .  S
Zn208       O212   1.957       .  S
Zn208       O213   2.070       .  S
Zn208       O217   2.073       .  S
Zn208       O224   2.037       .  S
Zn209       O212   1.948       .  S
Zn209       O214   2.058       .  S
Zn209       O216   2.042       .  S
Zn209       O220   2.054       .  S
Zn210       O212   1.936       .  S
Zn210       O215   2.000       .  S
Zn210       O218   2.047       .  S
Zn210       O221   2.017       .  S
Zn211       O212   1.932       .  S
Zn211       O219   1.936       .  S
Zn211       O222   1.971       .  S
Zn211       O223   1.975       .  S
O213        C225   1.285       .  A
O214        C226   1.278       .  A
O215        C227   1.272       .  A
O216        C225   1.280       .  A
O217        C227   1.281       .  A
O218        C226   1.277       .  A
O219        C228   1.260       .  A
O220        C229   1.275       .  A
O221        C228   1.272       .  A
O222        C229   1.265       .  A
O223        C230   1.265       .  A
O224        C230   1.270       .  A
C225        C418   1.451   1_556  S
C226        C384   1.454       .  S
C227        C434   1.448   1_565  S
C228        C392   1.412       .  S
C229        C386   1.435       .  S
C230        C409   1.433       .  S
Zn231       O235   1.887       .  S
Zn231       O236   1.945       .  S
Zn231       O240   1.942       .  S
Zn231       O247   1.913       .  S
Zn232       O235   1.929       .  S
Zn232       O237   2.027       .  S
Zn232       O239   2.055       .  S
Zn232       O243   2.000       .  S
Zn233       O235   1.930       .  S
Zn233       O238   2.004       .  S
Zn233       O241   1.989       .  S
Zn233       O244   2.004       .  S
Zn234       O235   1.938       .  S
Zn234       O242   2.098       .  S
Zn234       O245   2.142       .  S
Zn234       O246   2.166       .  S
O236        C248   1.260       .  A
O237        C249   1.275       .  A
O238        C250   1.272       .  A
O239        C248   1.274       .  A
O240        C250   1.262       .  A
O241        C249   1.269       .  A
O242        C251   1.284       .  A
O243        C252   1.276       .  A
O244        C251   1.272       .  A
O245        C252   1.295       .  A
O246        C253   1.293       .  A
O247        C253   1.261       .  A
C248        C403   1.428       .  S
C249        C462   1.430       .  S
C250        C382   1.409       .  S
C251        C436   1.453       .  S
C252        C397   1.458       .  S
C253        C396   1.451       .  S
Zn254       O258   1.912       .  S
Zn254       O259   1.993       .  S
Zn254       O263   1.952       .  S
Zn254       O270   1.956       .  S
Zn255       O258   1.925       .  S
Zn255       O260   2.004       .  S
Zn255       O262   2.046       .  S
Zn255       O266   2.014       .  S
Zn256       O258   1.945       .  S
Zn256       O261   2.139       .  S
Zn256       O264   2.115       .  S
Zn256       O267   2.088       .  S
Zn257       O258   1.948       .  S
Zn257       O265   1.981       .  S
Zn257       O268   1.984       .  S
Zn257       O269   1.977       .  S
O259        C271   1.265       .  A
O260        C272   1.276       .  A
O261        C273   1.291       .  A
O262        C271   1.274       .  A
O263        C273   1.267       .  A
O264        C272   1.290       .  A
O265        C274   1.267       .  A
O266        C275   1.270       .  A
O267        C274   1.281       .  A
O268        C275   1.268       .  A
O269        C276   1.266       .  A
O270        C276   1.265       .  A
C271        C378   1.440       .  S
C272        C379   1.453       .  S
C273        C464   1.450       .  S
C274        C425   1.444       .  S
C275        C393   1.428       .  S
C276        C381   1.408       .  S
Zn277       O281   1.928       .  S
Zn277       O282   2.029       .  S
Zn277       O286   2.033       .  S
Zn277       O293   2.003       .  S
Zn278       O281   1.951       .  S
Zn278       O283   1.971       .  S
Zn278       O285   1.998       .  S
Zn278       O289   1.988       .  S
Zn279       O281   1.918       .  S
Zn279       O284   1.983       .  S
Zn279       O287   1.953       .  S
Zn279       O290   1.955       .  S
Zn280       O281   1.950       .  S
Zn280       O288   2.156       .  S
Zn280       O291   2.104       .  S
Zn280       O292   2.130       .  S
O282        C294   1.272       .  A
O283        C295   1.265       .  A
O284        C296   1.264       .  A
O285        C294   1.270       .  A
O286        C296   1.273       .  A
O287        C295   1.265       .  A
O288        C297   1.293       .  A
O289        C298   1.269       .  A
O290        C297   1.267       .  A
O291        C298   1.284       .  A
O292        C299   1.292       .  A
O293        C299   1.276       .  A
C294        C377   1.438       .  S
C295        C375   1.406       .  S
C296        C428   1.433       .  S
C297        C413   1.456       .  S
C298        C387   1.450       .  S
C299        C437   1.457       .  S
Zn300       O304   1.937       .  S
Zn300       O305   2.038       .  S
Zn300       O309   2.020       .  S
Zn300       O316   2.064       .  S
Zn301       O304   1.935       .  S
Zn301       O306   2.018       .  S
Zn301       O308   1.998       .  S
Zn301       O312   1.998       .  S
Zn302       O304   1.950       .  S
Zn302       O307   2.099       .  S
Zn302       O310   2.086       .  S
Zn302       O313   2.140       .  S
Zn303       O304   1.906       .  S
Zn303       O311   1.920       .  S
Zn303       O314   1.939       .  S
Zn303       O315   1.960       .  S
O305        C317   1.275       .  A
O306        C318   1.273       .  A
O307        C319   1.289       .  A
O308        C317   1.269       .  A
O309        C319   1.280       .  A
O310        C318   1.281       .  A
O311        C320   1.260       .  A
O312        C321   1.272       .  A
O313        C320   1.288       .  A
O314        C321   1.262       .  A
O315        C322   1.262       .  A
O316        C322   1.274       .  A
C317        C411   1.438       .  S
C318        C383   1.454       .  S
C319        C374   1.450   1_556  S
C320        C380   1.446       .  S
C321        C376   1.406       .  S
C322        C372   1.435       .  S
Zn323       O327   1.921       .  S
Zn323       O328   2.018       .  S
Zn323       O332   2.030       .  S
Zn323       O339   1.994       .  S
Zn324       O327   1.945       .  S
Zn324       O329   1.979   1_655  S
Zn324       O331   2.000   1_655  S
Zn324       O335   2.018       .  S
Zn325       O327   1.917       .  S
Zn325       O330   1.999       .  S
Zn325       O333   1.969       .  S
Zn325       O336   1.947       .  S
Zn326       O327   1.939       .  S
Zn326       O334   2.157       .  S
Zn326       O337   2.114       .  S
Zn326       O338   2.154       .  S
O328        C340   1.271   1_655  A
O329        C341   1.266   1_455  A
O330        C342   1.266       .  A
O331        C340   1.272       .  A
O332        C342   1.272       .  A
O333        C341   1.266       .  A
O334        C343   1.294       .  A
O335        C344   1.273       .  A
O336        C343   1.268       .  A
O337        C344   1.285       .  A
O338        C345   1.295       .  A
O339        C345   1.274       .  A
C340        C371   1.435       .  S
C341        C369   1.412   1_655  S
C342        C385   1.436       .  S
C343        C402   1.454       .  S
C344        C408   1.462       .  S
C345        C389   1.462       .  S
Zn346       O350   1.918       .  S
Zn346       O351   2.021       .  S
Zn346       O355   2.005       .  S
Zn346       O362   1.995       .  S
Zn347       O350   1.933       .  S
Zn347       O352   2.068   1_455  S
Zn347       O354   2.064       .  S
Zn347       O358   2.051       .  S
Zn348       O350   1.908       .  S
Zn348       O353   1.956       .  S
Zn348       O356   1.955   1_455  S
Zn348       O359   1.958       .  S
Zn349       O350   1.939       .  S
Zn349       O357   2.057       .  S
Zn349       O360   2.088       .  S
Zn349       O361   2.080       .  S
O351        C363   1.274       .  A
O352        C364   1.279       .  A
O353        C365   1.261       .  A
O354        C363   1.279       .  A
O355        C365   1.270       .  A
O356        C364   1.264       .  A
O357        C366   1.274       .  A
O358        C367   1.282       .  A
O359        C366   1.262       .  A
O360        C367   1.288       .  A
O361        C368   1.283       .  A
O362        C368   1.272       .  A
C363        C416   1.449       .  S
C364        C399   1.433       .  S
C365        C370   1.411       .  S
C366        C446   1.433       .  S
C367        C455   1.456       .  S
C368        C373   1.447       .  S
C369        C370   1.192   1_556  T
C371        C372   1.207       .  T
C373        C374   1.215       .  T
C375        C376   1.190       .  T
C377        C378   1.209       .  T
C379        C380   1.216       .  T
C381        C382   1.191       .  T
C383        C384   1.217       .  T
C385        C386   1.207       .  T
C387        C388   1.216   1_455  T
C389        C390   1.223       .  T
C391        C392   1.194       .  T
C393        C394   1.203       .  T
C395        C396   1.220       .  T
C397        C398   1.221       .  T
C399        C400   1.206       .  T
C401        C402   1.220       .  T
C403        C404   1.203       .  T
C405        C406   1.197       .  T
C407        C408   1.222       .  T
C409        C410   1.205       .  T
C411        C412   1.208       .  T
C413        C414   1.222   1_565  T
C415        C416   1.214   1_655  T
C417        C418   1.216       .  T
C419        C420   1.207       .  T
C421        C422   1.213       .  T
C423        C424   1.196   1_546  T
C425        C426   1.212       .  T
C427        C428   1.205       .  T
C429        C430   1.219       .  T
C431        C432   1.204       .  T
C433        C434   1.216       .  T
C435        C436   1.217       .  T
C437        C438   1.219       .  T
C439        C440   1.204       .  T
C441        C442   1.193   1_565  T
C443        C444   1.219       .  T
C445        C446   1.206       .  T
C447        C448   1.217   1_545  T
C449        C450   1.209       .  T
C451        C452   1.220       .  T
C453        C454   1.216   1_655  T
C455        C456   1.218       .  T
C457        C458   1.208       .  T
C459        C460   1.193       .  T
C461        C462   1.203       .  T
C463        C464   1.218       .  T
