geometry optimzed in LAMMPS
_audit_creation_date              2020-12-01 
_audit_creation_method            'lammps2cif' 
_symmetry_space_group_name_H-M    'P1' 
_symmetry_Int_Tables_number       1 
_symmetry_cell_setting            triclinic 
loop_ 
_symmetry_equiv_pos_as_xyz 
  x,y,z 
_cell_length_a                    42.00790989 
_cell_length_b                    42.537169028133185 
_cell_length_c                    31.91656640399908 
_cell_angle_alpha                 89.11665256190737 
_cell_angle_beta                  90.13212349866812 
_cell_angle_gamma                 89.8169745257836 
loop_ 
_atom_site_label 
_atom_site_type_symbol 
_atom_site_fract_x 
_atom_site_fract_y 
_atom_site_fract_z 
_atom_site_charge 
O1          O  0.09236882  0.04801249  0.64467476    -0.86800
O2          O  0.09198623  0.00313420  0.70618550    -0.83900
C3          C  0.09320064  0.01895896  0.73957512     0.96600
O4          O  0.07010957  0.03602062  0.75033503    -0.83900
O5          O  0.01048768  0.06590499  0.74786905    -0.86600
C6          C  0.01537489  0.09219315  0.73048071     1.01100
O7          O  0.02434849  0.09353625  0.69310732    -0.79300
O8          O  0.05414645  0.07962445  0.62188531    -0.79500
C9          C  0.08352480  0.07439361  0.62995566     1.01100
O10         O  0.04852511  0.51228490  0.59466685    -0.86800
O11         O  0.04138002  0.47016285  0.66150143    -0.83900
C12         C  0.03474515  0.46095321  0.69826995     0.96600
O13         O  0.04028058  0.47874209  0.72861878    -0.83900
O14         O  0.48481367  0.00928265  0.71683300    -0.86500
C15         C  0.46377517  0.02534989  0.69836186     1.01100
O16         O  0.47136448  0.04978375  0.67674866    -0.79400
O17         O  0.50223912  0.03462671  0.60362855    -0.79500
C18         C  0.02090732  0.01895056  0.58142083     1.01100
Cr19       Cr  0.06619995  0.01000041  0.65344514     1.93700
Cr20       Cr  0.02718473  0.02353846  0.73169712     1.93200
Cr21       Cr  0.01458431  0.06199609  0.65082734     1.39100
O22         O  0.03592064  0.03215278  0.67830130    -1.24600
O23         O  0.17462500  0.20100618  0.62739500    -0.86800
O24         O  0.16209024  0.22981479  0.70069852    -0.83900
C25         C  0.16556195  0.23841940  0.73789147     0.96600
O26         O  0.19304993  0.24296720  0.75263938    -0.83900
O27         O  0.22902618  0.18583583  0.75128492    -0.86600
C28         C  0.24766351  0.16466988  0.73813178     1.01100
O29         O  0.26056622  0.16784931  0.70256643    -0.79300
O30         O  0.20781891  0.16409562  0.65002308    -0.79500
C31         C  0.18080087  0.17212356  0.63539560     1.01100
O32         O  0.21650414  0.25403011  0.60471895    -0.86800
O33         O  0.20200894  0.28353841  0.67866096    -0.83900
C34         C  0.22694557  0.29311828  0.69729317     0.96600
O35         O  0.24588953  0.27393384  0.71449625    -0.83900
O36         O  0.28203925  0.22184638  0.72032715    -0.86500
C37         C  0.29673892  0.22723725  0.68650308     1.01100
O38         O  0.28480454  0.21895809  0.65192098    -0.79400
O39         O  0.23661795  0.20769437  0.59342752    -0.79500
C40         C  0.22981050  0.23503587  0.58046494     1.01100
Cr41       Cr  0.19148768  0.24058377  0.65466562     1.93700
Cr42       Cr  0.23616067  0.23015500  0.73075239     1.93200
Cr43       Cr  0.24580853  0.19191519  0.65153349     1.39100
O44         O  0.22411370  0.22095727  0.67898627    -1.24600
O45         O  0.29559840  0.32906555  0.36348045    -0.86800
O46         O  0.26538627  0.34025559  0.29006030    -0.83900
C47         C  0.25570860  0.33702303  0.25324687     0.96600
O48         O  0.25057456  0.30997600  0.23908781    -0.83900
O49         O  0.31013130  0.27877985  0.23896200    -0.86600
C50         C  0.33344203  0.26281245  0.25259237     1.01100
O51         O  0.33191191  0.24861564  0.28777949    -0.79300
O52         O  0.33326030  0.29666429  0.34267791    -0.79500
C53         C  0.32497489  0.32302134  0.35671636     1.01100
O54         O  0.24331371  0.28555360  0.38627315    -0.86800
O55         O  0.21226095  0.29783038  0.31208218    -0.83900
C56         C  0.20446098  0.27210164  0.29461677     0.96600
O57         O  0.22515331  0.25512982  0.27788233    -0.83900
O58         O  0.27932360  0.22288510  0.26922988    -0.86500
C59         C  0.27639388  0.20690090  0.30271940     1.01100
O60         O  0.28167755  0.21929401  0.33761970    -0.79400
O61         O  0.29015480  0.26469838  0.39733579    -0.79500
C62         C  0.26249797  0.27109509  0.40995361     1.01100
Cr63       Cr  0.25568173  0.31077309  0.33617227     1.93700
Cr64       Cr  0.26717328  0.26801674  0.26025860     1.93200
Cr65       Cr  0.30682477  0.25882374  0.33938463     1.39100
O66         O  0.27658073  0.27963055  0.31207586    -1.24600
O67         O  0.45423708  0.40698322  0.35157459    -0.86800
O68         O  0.50350779  0.40955750  0.29513392    -0.83900
C69         C  0.48874244  0.40694206  0.26074507     0.96600
O70         O  0.47014072  0.42854414  0.24800510    -0.83900
O71         O  0.43682051  0.48670466  0.24608977    -0.86600
C72         C  0.40972805  0.48187256  0.26169622     1.01100
O73         O  0.40737896  0.47252419  0.29913532    -0.79300
O74         O  0.42163057  0.44403235  0.37321454    -0.79500
C75         C  0.42710612  0.41536383  0.36489060     1.01100
O76         O  0.98713424  0.45077169  0.40403684    -0.86800
O77         O  0.03221351  0.46060145  0.34083513    -0.83900
C78         C  0.04224690  0.46817914  0.30465521     0.96600
O79         O  0.02567188  0.46179210  0.27298024    -0.83900
O80         O  0.49165145  0.01521355  0.28101998    -0.86500
C81         C  0.47347251  0.03454368  0.29848438     1.01100
O82         O  0.44854455  0.02544234  0.31766609    -0.79400
O83         O  0.46452288  0.99628836  0.39225229    -0.79500
C84         C  0.48015879  0.47817691  0.41606876     1.01100
Cr85       Cr  0.49255961  0.43418816  0.34616467     1.93700
Cr86       Cr  0.47992092  0.47219337  0.26604117     1.93200
Cr87       Cr  0.43810124  0.48307425  0.34375037     1.39100
O88         O  0.46986975  0.46324562  0.31886622    -1.24600
O89         O  0.41241980  0.29597890  0.84472276    -0.86800
O90         O  0.41407994  0.25235914  0.78270092    -0.83900
C91         C  0.41322939  0.26879506  0.74917806     0.96600
O92         O  0.43627515  0.28626453  0.73901800    -0.83900
O93         O  0.49600122  0.31584144  0.74275779    -0.86600
C94         C  0.49092638  0.34176232  0.75998439     1.01100
O95         O  0.48136290  0.34232493  0.79711801    -0.79300
O96         O  0.45041876  0.32700646  0.86792018    -0.79500
C97         C  0.42105919  0.32173113  0.86047387     1.01100
O98         O  0.45554440  0.25918692  0.89512165    -0.86800
O99         O  0.46419086  0.21845219  0.82838174    -0.83900
C100        C  0.47141110  0.21007313  0.79177709     0.96600
O101        O  0.46619512  0.22855447  0.76131475    -0.83900
O102        O  0.02136705  0.25867379  0.77476652    -0.86500
C103        C  0.04186167  0.27382837  0.79483359     1.01100
O104        O  0.03382484  0.29785426  0.81600086    -0.79400
O105        O  0.00162969  0.28203518  0.88817041    -0.79500
C106        C  0.48240363  0.26645118  0.90992061     1.01100
Cr107      Cr  0.43896647  0.25808587  0.83605146     1.93700
Cr108      Cr  0.47910655  0.27327889  0.75875510     1.93200
Cr109      Cr  0.49029790  0.30993150  0.84001381     1.39100
O110        O  0.46950951  0.28074542  0.81198464    -1.24600
O111        O  0.32983003  0.44796157  0.87298986    -0.86800
O112        O  0.34459466  0.47944138  0.80057955    -0.83900
C113        C  0.34166369  0.48890415  0.76320007     0.96600
O114        O  0.31442562  0.49290973  0.74734032    -0.83900
O115        O  0.27880759  0.43534275  0.74742497    -0.86600
C116        C  0.25955551  0.41427753  0.76004256     1.01100
O117        O  0.24586630  0.41713696  0.79503674    -0.79300
O118        O  0.29626134  0.41201958  0.85049822    -0.79500
C119        C  0.32339736  0.41937191  0.86482708     1.01100
O120        O  0.28694483  0.00080286  0.89477372    -0.86800
O121        O  0.30340104  0.03188887  0.82149270    -0.83900
C122        C  0.27917853  0.04183520  0.80112788     0.96600
O123        O  0.26092414  0.02305195  0.78280499    -0.83900
O124        O  0.22519191  0.47090728  0.77493662    -0.86500
C125        C  0.20928507  0.47663099  0.80739605     1.01100
O126        O  0.21978824  0.46801837  0.84302567    -0.79400
O127        O  0.26544647  0.45489640  0.90505854    -0.79500
C128        C  0.27168672  0.48200193  0.91798448     1.01100
Cr129      Cr  0.31352094  0.48844988  0.84559926     1.93700
Cr130      Cr  0.27111670  0.47948609  0.76721503     1.93200
Cr131      Cr  0.25864604  0.44036549  0.84643198     1.39100
O132        O  0.28160752  0.46943809  0.81973929    -1.24600
O133        O  0.04142733  0.15866711  0.14799325    -0.86800
O134        O  0.99043144  0.15993513  0.20273599    -0.83900
C135        C  0.00440726  0.15694937  0.23773447     0.96600
O136        O  0.02257527  0.17845198  0.25069552    -0.83900
O137        O  0.05496306  0.23717388  0.25239286    -0.86600
C138        C  0.08232068  0.23333680  0.23723278     1.01100
O139        O  0.08560261  0.22450124  0.20009414    -0.79300
O140        O  0.07248201  0.19720529  0.12589960    -0.79500
C141        C  0.06817232  0.16819902  0.13436883     1.01100
O142        O  0.50890009  0.20273408  0.09385219    -0.86800
O143        O  0.46198531  0.21155076  0.15518153    -0.83900
C144        C  0.45118566  0.21868369  0.19091898     0.96600
O145        O  0.46707722  0.21153135  0.22322296    -0.83900
O146        O  0.00027392  0.26566379  0.21642798    -0.86500
C147        C  0.01848860  0.28556423  0.19961021     1.01100
O148        O  0.04360380  0.27707927  0.18064828    -0.79400
O149        O  0.02862871  0.24901478  0.10584945    -0.79500
C150        C  0.01498185  0.23026626  0.08150677     1.01100
Cr151      Cr  0.00222764  0.18534888  0.15183070     1.93700
Cr152      Cr  0.01246319  0.22239818  0.23177525     1.93200
Cr153      Cr  0.05503996  0.23533555  0.15489260     1.39100
O154        O  0.02362736  0.21441722  0.17940386    -1.24600
O155        O  0.20180976  0.08943738  0.14964397    -0.86800
O156        O  0.25199520  0.08674784  0.20567214    -0.83900
C157        C  0.23888224  0.08912828  0.24109786     0.96600
O158        O  0.21998570  0.06803273  0.25405563    -0.83900
O159        O  0.18603815  0.01065242  0.25505470    -0.86600
C160        C  0.15898363  0.01494188  0.23885052     1.01100
O161        O  0.15647833  0.02290600  0.20083021    -0.85700
O162        O  0.17093320  0.05147720  0.12694030    -0.79500
C163        C  0.17518529  0.08027955  0.13543925     1.01100
O164        O  0.23503607  0.04619579  0.09696719    -0.86800
O165        O  0.28107074  0.03636254  0.16023671    -0.83900
C166        C  0.29150874  0.02867214  0.19638547     0.96600
O167        O  0.27484868  0.03417185  0.22823651    -0.83900
O168        O  0.24057250  0.48093932  0.22063936    -0.86500
C169        C  0.22321484  0.46141189  0.20214392     1.01100
O170        O  0.19834687  0.47028426  0.18256118    -0.79400
O171        O  0.21504711  0.49970652  0.10866948    -0.79500
C172        C  0.22963104  0.01864554  0.08489323     1.01100
Cr173      Cr  0.24081587  0.06246180  0.15498752     1.93700
Cr174      Cr  0.22911558  0.02425350  0.23533326     1.93200
Cr175      Cr  0.18774951  0.01273755  0.15677460     1.39100
O176        O  0.21885203  0.03311252  0.18234345    -1.24600
C177        C  0.12701359  0.15667453  0.12890944    -0.14800
C178        C  0.09537237  0.14565023  0.12960679     0.07300
C179        C  0.09046267  0.11296279  0.12940261    -0.14800
C180        C  0.11639024  0.09195536  0.12920091    -0.14800
C181        C  0.14803141  0.10295839  0.13009375     0.07300
C182        C  0.15294486  0.13565452  0.12960091    -0.14800
H183        H  0.13179924  0.18166217  0.12955931     0.11300
H184        H  0.06653733  0.10357385  0.13020505     0.11300
H185        H  0.11159608  0.06695562  0.13009839     0.11300
H186        H  0.17687306  0.14502129  0.13054641     0.11300
C187        C  0.27024421  0.02026221  0.97796745    -0.14800
C188        C  0.26109439  0.49131562  0.96079384     0.07300
C189        C  0.24140082  0.47136327  0.98504389    -0.14800
C190        C  0.23114156  0.48008065  0.02511820    -0.14800
C191        C  0.24028901  0.00906670  0.04224852     0.07300
C192        C  0.25997165  0.02898791  0.01799176    -0.14800
H193        H  0.28538848  0.03620492  0.96035186     0.11300
H194        H  0.23376222  0.44896607  0.97297463     0.11300
H195        H  0.21597511  0.46416756  0.04275786     0.11300
H196        H  0.26760486  0.05139376  0.03001967     0.11300
C197        C  0.47757330  0.23030758  0.97263076    -0.14800
C198        C  0.49094163  0.25718676  0.95369185     0.07300
C199        C  0.01195059  0.27545349  0.97738173    -0.14800
C200        C  0.01937762  0.26719773  0.01905426    -0.14800
C201        C  0.00641638  0.23999072  0.03780946     0.07300
C202        C  0.48546985  0.22169418  0.01394532    -0.14800
H203        H  0.46128069  0.21570072  0.95528251     0.11300
H204        H  0.02237158  0.29650669  0.96377532     0.11300
H205        H  0.03558199  0.28188808  0.03640500     0.11300
H206        H  0.47495920  0.20062158  0.02736274     0.11300
C207        C  0.40420851  0.37783830  0.87613939    -0.14800
C208        C  0.39614740  0.34628364  0.86857640     0.07300
C209        C  0.36364654  0.33887707  0.86428019    -0.14800
C210        C  0.34012728  0.36234643  0.86526264    -0.14800
C211        C  0.34819545  0.39413418  0.87059799     0.07300
C212        C  0.38054878  0.40144465  0.87714503    -0.14800
H213        H  0.42892698  0.38454097  0.87937509     0.11300
H214        H  0.35633998  0.31492425  0.85857904     0.11300
H215        H  0.31558258  0.35563143  0.86029806     0.11300
H216        H  0.38777423  0.42562236  0.88116988     0.11300
C217        C  0.45678359  0.08951164  0.28184807    -0.14800
C218        C  0.48088707  0.06821806  0.29317379     0.07300
C219        C  0.01300383  0.07814572  0.29189454    -0.14800
C220        C  0.02086334  0.10841239  0.27747741    -0.14800
C221        C  0.99684366  0.12885264  0.26329703     0.07300
C222        C  0.46466207  0.11939288  0.26639113    -0.14800
H223        H  0.43209512  0.08220564  0.28170127     0.11300
H224        H  0.03198511  0.06187039  0.30005021     0.11300
H225        H  0.04566577  0.11489839  0.27433309     0.11300
H226        H  0.44579895  0.13468772  0.25488481     0.11300
C227        C  0.47149234  0.35918369  0.22213644    -0.14800
C228        C  0.49580497  0.37914523  0.23547410     0.07300
C229        C  0.52773196  0.36978037  0.23082762    -0.14800
C230        C  0.03529221  0.34023636  0.21506978    -0.14800
C231        C  0.01097740  0.31909692  0.20537925     0.07300
C232        C  0.97903800  0.32911778  0.20773779    -0.14800
H233        H  0.44677057  0.36584104  0.22589021     0.11300
H234        H  0.54683099  0.38488572  0.24116716     0.11300
H235        H  0.06001870  0.33295442  0.21394884     0.11300
H236        H  0.95988779  0.31311708  0.20034841     0.11300
C237        C  0.07217246  0.00784530  0.26422117    -0.14800
C238        C  0.07228329  0.48513165  0.29672322     0.07300
C239        C  0.10135644  0.47622954  0.31514266    -0.14800
C240        C  0.13006713  0.48783503  0.29838171    -0.14800
C241        C  0.12974966  0.00845854  0.26330707     0.07300
C242        C  0.10048542  0.01937551  0.24778034    -0.14800
H243        H  0.05008000  0.01527643  0.24955526     0.11300
H244        H  0.10199667  0.45869886  0.34008688     0.11300
H245        H  0.15239896  0.47904325  0.31098052     0.11300
H246        H  0.09942638  0.03545637  0.22114056     0.11300
C247        C  0.32265836  0.48949925  0.23646245    -0.14800
C248        C  0.32220594  0.01243811  0.20437044     0.07300
C249        C  0.35118806  0.02227545  0.18681048    -0.14800
C250        C  0.38017886  0.01075213  0.20347705    -0.14800
C251        C  0.38029748  0.48920048  0.23755619     0.07300
C252        C  0.35117367  0.47786863  0.25259840    -0.14800
H253        H  0.30076512  0.48184817  0.25113730     0.11300
H254        H  0.35149684  0.04033322  0.16250814     0.11300
H255        H  0.40233128  0.02012683  0.19147962     0.11300
H256        H  0.35033962  0.46126905  0.27868092     0.11300
C257        C  0.36914662  0.40034420  0.37626138    -0.14800
C258        C  0.40106826  0.39148781  0.36887123     0.07300
C259        C  0.40743604  0.35974781  0.36061893    -0.14800
C260        C  0.38279846  0.33777110  0.35841770    -0.14800
C261        C  0.35074044  0.34662821  0.36424718     0.07300
C262        C  0.34427392  0.37818097  0.37396300    -0.14800
H263        H  0.36323119  0.42464397  0.38227260     0.11300
H264        H  0.43152060  0.35192825  0.35450662     0.11300
H265        H  0.38897304  0.31378344  0.35089170     0.11300
H266        H  0.31995741  0.38596038  0.37841043     0.11300
C267        C  0.27217797  0.38914792  0.22639480    -0.14800
C268        C  0.24893192  0.36570251  0.22849561     0.07300
C269        C  0.21769071  0.37277734  0.21547115    -0.14800
C270        C  0.20932409  0.40374409  0.20396560    -0.14800
C271        C  0.23219176  0.42776967  0.20537493     0.07300
C272        C  0.26397762  0.41975120  0.21448307    -0.14800
H273        H  0.29636536  0.38417099  0.23644055     0.11300
H274        H  0.19930486  0.35504836  0.21758481     0.11300
H275        H  0.18467659  0.40925137  0.19688997     0.11300
H276        H  0.28229183  0.43750561  0.21451016     0.11300
C277        C  0.29047193  0.15455651  0.27807065    -0.14800
C278        C  0.26884640  0.17347857  0.29927778     0.07300
C279        C  0.23802694  0.16218438  0.30769988    -0.14800
C280        C  0.22823162  0.13309722  0.29175996    -0.14800
C281        C  0.24928066  0.11553496  0.26719123     0.07300
C282        C  0.28087751  0.12581332  0.26246042    -0.14800
H283        H  0.31418462  0.16305672  0.27098475     0.11300
H284        H  0.22090431  0.17688973  0.32356484     0.11300
H285        H  0.20379738  0.12563338  0.29576793     0.11300
H286        H  0.29775750  0.11244842  0.24420487     0.11300
C287        C  0.39133403  0.26816735  0.24646605    -0.14800
C288        C  0.36271311  0.25903252  0.22806682     0.07300
C289        C  0.36339612  0.24027976  0.19208174    -0.14800
C290        C  0.39257841  0.22879026  0.17676648    -0.14800
C291        C  0.42103211  0.23590026  0.19770721     0.07300
C292        C  0.42011005  0.25688018  0.23136812    -0.14800
H293        H  0.39128409  0.28228240  0.27444719     0.11300
H294        H  0.34135604  0.23248602  0.17802383     0.11300
H295        H  0.39264523  0.21252206  0.15101919     0.11300
H296        H  0.44166412  0.26294514  0.24805183     0.11300
C297        C  0.14469366  0.28124465  0.29288869    -0.14800
C298        C  0.17109463  0.26104159  0.29022449     0.07300
C299        C  0.16616036  0.22991862  0.27685298    -0.14800
C300        C  0.13663675  0.22031360  0.26205774    -0.14800
C301        C  0.11090926  0.24113542  0.26167564     0.07300
C302        C  0.11462931  0.27120050  0.27893411    -0.14800
H303        H  0.14766297  0.30523093  0.30301645     0.11300
H304        H  0.18575603  0.21337172  0.27509191     0.11300
H305        H  0.13425259  0.19705242  0.24905919     0.11300
H306        H  0.09492503  0.28769666  0.27855820     0.11300
C307        C  0.26685825  0.23498360  0.47215602    -0.14800
C308        C  0.25301977  0.26166361  0.45303656     0.07300
C309        C  0.23076933  0.27929425  0.47575254    -0.14800
C310        C  0.22326797  0.27088396  0.51727288    -0.14800
C311        C  0.23732651  0.24425456  0.53648419     0.07300
C312        C  0.25886737  0.22619948  0.51317705    -0.14800
H313        H  0.28382532  0.22078484  0.45525115     0.11300
H314        H  0.21974479  0.29998639  0.46173355     0.11300
H315        H  0.20641537  0.28512495  0.53427532     0.11300
H316        H  0.27003074  0.20547936  0.52691682     0.11300
C317        C  0.10165766  0.28302651  0.79612299    -0.14800
C318        C  0.07545847  0.26303682  0.79039940     0.07300
C319        C  0.08102420  0.23280180  0.77436561    -0.14800
C320        C  0.11103620  0.22400957  0.76016137    -0.14800
C321        C  0.13666288  0.24478223  0.76273750     0.07300
C322        C  0.13217370  0.27385148  0.78252187    -0.14800
H323        H  0.09822406  0.30637994  0.80839111     0.11300
H324        H  0.06164430  0.21640993  0.77038232     0.11300
H325        H  0.11388491  0.20149900  0.74514439     0.11300
H326        H  0.15163450  0.29041297  0.78439724     0.11300
C327        C  0.32887453  0.27056032  0.71422254    -0.14800
C328        C  0.32752162  0.24339494  0.68972871     0.07300
C329        C  0.35592663  0.22868208  0.67787603    -0.14800
C330        C  0.38503677  0.23931691  0.69390758    -0.14800
C331        C  0.38585071  0.26492559  0.72127480     0.07300
C332        C  0.35781386  0.28130206  0.72979810    -0.14800
H333        H  0.30722823  0.28189424  0.72444104     0.11300
H334        H  0.35534915  0.20733063  0.65982782     0.11300
H335        H  0.40650438  0.22595881  0.68792126     0.11300
H336        H  0.35792376  0.30059414  0.75158638     0.11300
C337        C  0.23309362  0.11746357  0.78257863    -0.14800
C338        C  0.25637653  0.13641934  0.76361139     0.07300
C339        C  0.28817277  0.12571268  0.76350980    -0.14800
C340        C  0.29625631  0.09593644  0.77978439    -0.14800
C341        C  0.27254559  0.07589546  0.79544745     0.07300
C342        C  0.24103912  0.08725311  0.79779546    -0.14800
H343        H  0.20842832  0.12498295  0.78270799     0.11300
H344        H  0.30659283  0.13987257  0.74893950     0.11300
H345        H  0.32055846  0.08762133  0.77697040     0.11300
H346        H  0.22229032  0.07210378  0.80948487     0.11300
C347        C  0.21046916  0.34622123  0.72124543    -0.14800
C348        C  0.23349353  0.32709564  0.70275423     0.07300
C349        C  0.26456577  0.33904786  0.69744839    -0.14800
C350        C  0.27289522  0.36880247  0.71276422    -0.14800
C351        C  0.25042799  0.38668842  0.73457007     0.07300
C352        C  0.21890476  0.37550300  0.73728869    -0.14800
H353        H  0.18656586  0.33747927  0.72633292     0.11300
H354        H  0.28277134  0.32470144  0.68320253     0.11300
H355        H  0.29731465  0.37670452  0.71030196     0.11300
H356        H  0.20100528  0.38883191  0.75381590     0.11300
C357        C  0.52566727  0.48323002  0.51931964    -0.14800
C358        C  0.01046009  0.00847840  0.53911091     0.07300
C359        C  0.98509300  0.02364688  0.51801539    -0.14800
C360        C  0.97544538  0.01404947  0.47803889    -0.14800
C361        C  0.49041041  0.48858101  0.45847292     0.07300
C362        C  0.51555807  0.47319866  0.47975101    -0.14800
H363        H  0.54520794  0.47095749  0.53466999     0.11300
H364        H  0.97292070  0.04323772  0.53222611     0.11300
H365        H  0.95599556  0.02640063  0.46259832     0.11300
H366        H  0.52773300  0.45360375  0.46554261     0.11300
C367        C  0.14079217  0.09186585  0.62955112    -0.14800
C368        C  0.10831741  0.09952572  0.62435242     0.07300
C369        C  0.10019108  0.13153805  0.61929332    -0.14800
C370        C  0.12373673  0.15512321  0.62113557    -0.14800
C371        C  0.15602423  0.14734336  0.62823590     0.07300
C372        C  0.16415526  0.11529524  0.63152650    -0.14800
H373        H  0.14818168  0.06760098  0.63364510     0.11300
H374        H  0.07549052  0.13846612  0.61575862     0.11300
H375        H  0.11646346  0.17952349  0.61865684     0.11300
H376        H  0.18864302  0.10822485  0.63683517     0.11300
C377        C  0.14980353  0.02873400  0.75387880    -0.14800
C378        C  0.12117419  0.01513809  0.76662901     0.07300
C379        C  0.12123849  0.49236568  0.79908234    -0.14800
C380        C  0.15010544  0.48165011  0.81651900    -0.14800
C381        C  0.17895852  0.49345832  0.80102673     0.07300
C382        C  0.17840404  0.01816254  0.77115546    -0.14800
H383        H  0.15021719  0.04579625  0.72831860     0.11300
H384        H  0.09921029  0.48118495  0.80855204     0.11300
H385        H  0.14998430  0.46234507  0.83904183     0.11300
H386        H  0.20038424  0.02748465  0.75848516     0.11300
C387        C  0.40413764  0.03564609  0.70315315    -0.14800
C388        C  0.43030031  0.01500088  0.70560076     0.07300
C389        C  0.42521523  0.48437980  0.72146085    -0.14800
C390        C  0.39601046  0.47552277  0.73852145    -0.14800
C391        C  0.37053676  0.49667980  0.73870725     0.07300
C392        C  0.37433329  0.02635146  0.71936095    -0.14800
H393        H  0.40714679  0.05939348  0.69114532     0.11300
H394        H  0.44450033  0.46748731  0.72292050     0.11300
H395        H  0.39360708  0.45238559  0.75282495     0.11300
H396        H  0.35487456  0.04312414  0.71927871     0.11300
C397        C  0.99035882  0.12286154  0.78906617    -0.14800
C398        C  0.00873166  0.12190806  0.75220032     0.07300
C399        C  0.01785308  0.15024498  0.73279140    -0.14800
C400        C  0.50669384  0.17860127  0.74750967    -0.14800
C401        C  0.48643734  0.17967144  0.78237669     0.07300
C402        C  0.47932209  0.15170616  0.80424863    -0.14800
H403        H  0.98310701  0.10128384  0.80472914     0.11300
H404        H  0.03240598  0.15044934  0.70482405     0.11300
H405        H  0.51301316  0.19990035  0.73041498     0.11300
H406        H  0.46386751  0.15204616  0.83131603     0.11300
C407        C  0.02685171  0.40285065  0.68594804    -0.14800
C408        C  0.01998684  0.43035422  0.70797636     0.07300
C409        C  0.50009953  0.42858340  0.74322869    -0.14800
C410        C  0.48901028  0.39987724  0.75800244    -0.14800
C411        C  0.49782684  0.37194489  0.73835453     0.07300
C412        C  0.01597160  0.37362936  0.70133145    -0.14800
H413        H  0.04199958  0.40373840  0.65852885     0.11300
H414        H  0.49399748  0.44946628  0.76049821     0.11300
H415        H  0.47469607  0.39953770  0.78621968     0.11300
H416        H  0.02298798  0.35239495  0.68550575     0.11300
O417        O  0.09239106  0.54795070  0.64454062    -0.86800
O418        O  0.09202478  0.50304909  0.70602818    -0.83900
C419        C  0.09325915  0.51887059  0.73941677     0.96600
O420        O  0.07018537  0.53595036  0.75018944    -0.83900
O421        O  0.01055857  0.56584518  0.74781060    -0.86600
C422        C  0.01542100  0.59213772  0.73041851     1.01100
O423        O  0.02437490  0.59348461  0.69303646    -0.79300
O424        O  0.05416016  0.57957202  0.62179580    -0.79500
C425        C  0.08354475  0.57433773  0.62983877     1.01100
O426        O  0.04852666  0.01232551  0.59476791    -0.86800
O427        O  0.04136987  0.97022930  0.66161441    -0.83900
C428        C  0.03471412  0.96101847  0.69837314     0.96600
O429        O  0.04022535  0.97880587  0.72873110    -0.83900
O430        O  0.48477543  0.50935434  0.71683985    -0.86500
C431        C  0.46375827  0.52544104  0.69835724     1.01100
O432        O  0.47136758  0.54987840  0.67677020    -0.79400
O433        O  0.50224502  0.53469801  0.60366207    -0.79500
C434        C  0.02089549  0.51889356  0.58135217     1.01100
Cr435      Cr  0.06621658  0.50993792  0.65332063     1.93700
Cr436      Cr  0.02724509  0.52347582  0.73160961     1.93200
Cr437      Cr  0.01459936  0.56193777  0.65076132     1.39100
O438        O  0.03595082  0.53209240  0.67820892    -1.24600
O439        O  0.17459754  0.70100687  0.62722875    -0.86800
O440        O  0.16207932  0.72983999  0.70052748    -0.83900
C441        C  0.16556822  0.73847397  0.73770365     0.96600
O442        O  0.19305891  0.74301148  0.75243686    -0.83900
O443        O  0.22901867  0.68586417  0.75106737    -0.86600
C444        C  0.24765588  0.66469896  0.73790775     1.01100
O445        O  0.26057603  0.66789822  0.70235645    -0.79300
O446        O  0.20783389  0.66411843  0.64981519    -0.79500
C447        C  0.18080096  0.67212555  0.63521248     1.01100
O448        O  0.21644000  0.75404810  0.60449311    -0.86800
O449        O  0.20197837  0.78357058  0.67846616    -0.83900
C450        C  0.22689985  0.79315941  0.69713283     0.96600
O451        O  0.24586620  0.77397689  0.71429973    -0.83900
O452        O  0.28202983  0.72188730  0.72012728    -0.86500
C453        C  0.29672863  0.72730458  0.68631192     1.01100
O454        O  0.28479776  0.71903250  0.65172206    -0.79400
O455        O  0.23660687  0.70772947  0.59322861    -0.79500
C456        C  0.22975753  0.73505461  0.58024765     1.01100
Cr457      Cr  0.19145775  0.74060433  0.65447308     1.93700
Cr458      Cr  0.23615322  0.73019108  0.73054596     1.93200
Cr459      Cr  0.24581028  0.69196276  0.65132853     1.39100
O460        O  0.22410167  0.72099463  0.67878082    -1.24600
O461        O  0.29559384  0.82897525  0.36327307    -0.86800
O462        O  0.26541651  0.84016122  0.28983334    -0.83900
C463        C  0.25567949  0.83693661  0.25304740     0.96600
O464        O  0.25049367  0.80988905  0.23890777    -0.83900
O465        O  0.31001860  0.77861775  0.23873734    -0.86600
C466        C  0.33333253  0.76266401  0.25238685     1.01100
O467        O  0.33179961  0.74847178  0.28757536    -0.79300
O468        O  0.33322207  0.79657897  0.34237702    -0.79500
C469        C  0.32496218  0.82293367  0.35644564     1.01100
O470        O  0.24325687  0.78551110  0.38604150    -0.86800
O471        O  0.21221805  0.79783574  0.31186929    -0.83900
C472        C  0.20438012  0.77208974  0.29448038     0.96600
O473        O  0.22504690  0.75506884  0.27778340    -0.83900
O474        O  0.27916899  0.72276230  0.26911528    -0.86500
C475        C  0.27626016  0.70681237  0.30263936     1.01100
O476        O  0.28159971  0.71922834  0.33751111    -0.79400
O477        O  0.29011111  0.76469376  0.39713744    -0.79500
C478        C  0.26244209  0.77106949  0.40973598     1.01100
Cr479      Cr  0.25565836  0.81071914  0.33595672     1.93700
Cr480      Cr  0.26706328  0.76790731  0.26009040     1.93200
Cr481      Cr  0.30676122  0.75874690  0.33918621     1.39100
O482        O  0.27651487  0.77954530  0.31187920    -1.24600
O483        O  0.45427784  0.90689126  0.35150264    -0.86800
O484        O  0.50349685  0.90952088  0.29501181    -0.83900
C485        C  0.48872386  0.90696223  0.26061702     0.96600
O486        O  0.47013455  0.92859156  0.24792452    -0.83900
O487        O  0.43683740  0.98677201  0.24619057    -0.86600
C488        C  0.40974924  0.98185821  0.26176289     1.01100
O489        O  0.40740857  0.97239511  0.29915061    -0.79300
O490        O  0.42166553  0.94390168  0.37321888    -0.79500
C491        C  0.42714095  0.91524761  0.36482293     1.01100
O492        O  0.98708439  0.95086131  0.40408664    -0.86800
O493        O  0.03217161  0.96068085  0.34089029    -0.83900
C494        C  0.04221253  0.96823937  0.30470756     0.96600
O495        O  0.02565757  0.96180870  0.27302715    -0.83900
O496        O  0.49161701  0.51522720  0.28085822    -0.86500
C497        C  0.47350058  0.53458704  0.29837568     1.01100
O498        O  0.44858332  0.52552905  0.31761482    -0.79400
O499        O  0.46453460  0.49640688  0.39222590    -0.79500
C500        C  0.48018109  0.97806319  0.41606076     1.01100
Cr501      Cr  0.49259828  0.93410826  0.34610156     1.93700
Cr502      Cr  0.47993698  0.97220796  0.26606764     1.93200
Cr503      Cr  0.43810552  0.98296349  0.34377634     1.39100
O504        O  0.46989483  0.96318480  0.31886941    -1.24600
O505        O  0.41233946  0.79593513  0.84478696    -0.86800
O506        O  0.41401098  0.75236355  0.78271701    -0.83900
C507        C  0.41317674  0.76881809  0.74920797     0.96600
O508        O  0.43623521  0.78628359  0.73907997    -0.83900
O509        O  0.49599160  0.81581006  0.74284637    -0.86600
C510        C  0.49096011  0.84173420  0.76008059     1.01100
O511        O  0.48140167  0.84230645  0.79721881    -0.79300
O512        O  0.45033399  0.82698519  0.86795862    -0.79500
C513        C  0.42097129  0.82168789  0.86054007     1.01100
O514        O  0.45542227  0.75911460  0.89518486    -0.86800
O515        O  0.46411411  0.71843200  0.82841636    -0.83900
C516        C  0.47134570  0.71007265  0.79181087     0.96600
O517        O  0.46611191  0.72855687  0.76136064    -0.83900
O518        O  0.02144005  0.75870833  0.77468647    -0.86500
C519        C  0.04192244  0.77390723  0.79470976     1.01100
O520        O  0.03386849  0.79794646  0.81583395    -0.79400
O521        O  0.00173235  0.78205856  0.88803317    -0.79500
C522        C  0.48226781  0.76638435  0.91001608     1.01100
Cr523      Cr  0.43888474  0.75805422  0.83609238     1.93700
Cr524      Cr  0.47905860  0.77326509  0.75882758     1.93200
Cr525      Cr  0.49024009  0.80988236  0.84012170     1.39100
O526        O  0.46944507  0.78072051  0.81205785    -1.24600
O527        O  0.32978193  0.94789955  0.87308177    -0.86800
O528        O  0.34457134  0.97934473  0.80063926    -0.83900
C529        C  0.34164856  0.98882276  0.76326321     0.96600
O530        O  0.31440821  0.99287011  0.74742348    -0.83900
O531        O  0.27870656  0.93534246  0.74753769    -0.86600
C532        C  0.25943750  0.91429398  0.76016421     1.01100
O533        O  0.24575272  0.91717539  0.79516092    -0.79300
O534        O  0.29615031  0.91199909  0.85063302    -0.79500
C535        C  0.32330257  0.91931713  0.86494548     1.01100
O536        O  0.28688209  0.50080342  0.89464349    -0.86800
O537        O  0.30334354  0.53192296  0.82138959    -0.83900
C538        C  0.27912879  0.54184347  0.80098558     0.96600
O539        O  0.26089545  0.52303557  0.78267123    -0.83900
O540        O  0.22514188  0.97098497  0.77506342    -0.86500
C541        C  0.20924390  0.97672779  0.80752545     1.01100
O542        O  0.21974715  0.96810748  0.84315207    -0.79400
O543        O  0.26539857  0.95494346  0.90517842    -0.79500
C544        C  0.27171285  0.98203068  0.91811671     1.01100
Cr545      Cr  0.31352906  0.98840369  0.84569083     1.93700
Cr546      Cr  0.27108265  0.97949725  0.76733009     1.93200
Cr547      Cr  0.25857152  0.94040185  0.84655664     1.39100
O548        O  0.28157293  0.96943764  0.81985235    -1.24600
O549        O  0.04137902  0.65865072  0.14784060    -0.86800
O550        O  0.99036808  0.65988543  0.20257382    -0.83900
C551        C  0.00431088  0.65686778  0.23759143     0.96600
O552        O  0.02248907  0.67835066  0.25059348    -0.83900
O553        O  0.05487593  0.73708975  0.25238367    -0.86600
C554        C  0.08223705  0.73329784  0.23722012     1.01100
O555        O  0.08553574  0.72447298  0.20008070    -0.79300
O556        O  0.07246152  0.69720320  0.12585614    -0.79500
C557        C  0.06813537  0.66818821  0.13425423     1.01100
O558        O  0.50890187  0.70266931  0.09393374    -0.86800
O559        O  0.46199989  0.71152742  0.15524066    -0.83900
C560        C  0.45119934  0.71869575  0.19096109     0.96600
O561        O  0.46710030  0.71160203  0.22328277    -0.83900
O562        O  0.00021246  0.76560516  0.21643678    -0.86500
C563        C  0.01843449  0.78551478  0.19965048     1.01100
O564        O  0.04353798  0.77704102  0.18065363    -0.79400
O565        O  0.02862165  0.74901942  0.10579037    -0.79500
C566        C  0.01498546  0.73028217  0.08142157     1.01100
Cr567      Cr  0.00217626  0.68533857  0.15171468     1.93700
Cr568      Cr  0.01239138  0.72231967  0.23172355     1.93200
Cr569      Cr  0.05499441  0.73531665  0.15486462     1.39100
O570        O  0.02357268  0.71438128  0.17933846    -1.24600
O571        O  0.20177487  0.58941166  0.14943690    -0.86800
O572        O  0.25193709  0.58675985  0.20552199    -0.83900
C573        C  0.23877208  0.58910999  0.24092455     0.96600
O574        O  0.21989197  0.56798764  0.25383671    -0.83900
O575        O  0.18606047  0.51055292  0.25485719    -0.86600
C576        C  0.15899645  0.51486900  0.23869547     1.01100
O577        O  0.15647396  0.52288972  0.20069889    -0.85700
O578        O  0.17088817  0.55144086  0.12678009    -0.79500
C579        C  0.17514667  0.58024926  0.13524523     1.01100
O580        O  0.23501847  0.54615381  0.09680490    -0.86800
O581        O  0.28106431  0.53635969  0.16006737    -0.83900
C582        C  0.29149902  0.52868426  0.19622271     0.96600
O583        O  0.27483393  0.53422624  0.22805454    -0.83900
O584        O  0.24051274  0.98091961  0.22086903    -0.86500
C585        C  0.22316512  0.96140968  0.20231886     1.01100
O586        O  0.19832877  0.97030405  0.18269165    -0.79400
O587        O  0.21509517  0.99974029  0.10883052    -0.79500
C588        C  0.22958632  0.51860677  0.08473157     1.01100
Cr589      Cr  0.24079287  0.56245085  0.15481034     1.93700
Cr590      Cr  0.22911186  0.52423620  0.23513522     1.93200
Cr591      Cr  0.18772703  0.51271012  0.15662356     1.39100
O592        O  0.21883630  0.53309453  0.18215939    -1.24600
C593        C  0.12697884  0.65665422  0.12877922    -0.14800
C594        C  0.09533430  0.64563588  0.12945301     0.07300
C595        C  0.09042274  0.61294907  0.12918040    -0.14800
C596        C  0.11634961  0.59193763  0.12895264    -0.14800
C597        C  0.14799342  0.60293376  0.12988708     0.07300
C598        C  0.15290833  0.63563019  0.12944281    -0.14800
H599        H  0.13176906  0.68163995  0.12947361     0.11300
H600        H  0.06649608  0.60356256  0.12995461     0.11300
H601        H  0.11155165  0.56693840  0.12980412     0.11300
H602        H  0.17683692  0.64499434  0.13041574     0.11300
C603        C  0.27012964  0.52025155  0.97778299    -0.14800
C604        C  0.26115190  0.99135273  0.96094411     0.07300
C605        C  0.24141839  0.97142777  0.98517692    -0.14800
C606        C  0.23116519  0.98014543  0.02525336    -0.14800
C607        C  0.24022353  0.50902607  0.04208450     0.07300
C608        C  0.25985475  0.52897479  0.01780013    -0.14800
H609        H  0.28523800  0.53621618  0.96014864     0.11300
H610        H  0.23373732  0.94905129  0.97308891     0.11300
H611        H  0.21596187  0.96425282  0.04286921     0.11300
H612        H  0.26744999  0.55140069  0.02980214     0.11300
C613        C  0.47742951  0.73024675  0.97274842    -0.14800
C614        C  0.49079138  0.75712466  0.95379410     0.07300
C615        C  0.01206978  0.77545475  0.97726552    -0.14800
C616        C  0.01946721  0.76719959  0.01895101    -0.14800
C617        C  0.00647309  0.74000540  0.03770255     0.07300
C618        C  0.48535745  0.72163064  0.01405537    -0.14800
H619        H  0.46112725  0.71564010  0.95541569     0.11300
H620        H  0.02250673  0.79650222  0.96366557     0.11300
H621        H  0.03566779  0.78188363  0.03631835     0.11300
H622        H  0.47485904  0.70055709  0.02748834     0.11300
C623        C  0.40407766  0.87774441  0.87643254    -0.14800
C624        C  0.39603850  0.84621540  0.86867152     0.07300
C625        C  0.36354535  0.83881962  0.86421195    -0.14800
C626        C  0.34002121  0.86228482  0.86520512    -0.14800
C627        C  0.34807717  0.89405617  0.87071899     0.07300
C628        C  0.38041409  0.90134492  0.87745153    -0.14800
H629        H  0.42878709  0.88443780  0.87981521     0.11300
H630        H  0.35625187  0.81488438  0.85836240     0.11300
H631        H  0.31548899  0.85558462  0.86009820     0.11300
H632        H  0.38763008  0.92550820  0.88163351     0.11300
C633        C  0.45690195  0.58971047  0.28239304    -0.14800
C634        C  0.48100865  0.56825055  0.29312692     0.07300
C635        C  0.01281880  0.57825171  0.29237398    -0.14800
C636        C  0.02066135  0.60850647  0.27787392    -0.14800
C637        C  0.99667360  0.62876938  0.26313110     0.07300
C638        C  0.46478207  0.61962423  0.26704104    -0.14800
H639        H  0.43217694  0.58252626  0.28261926     0.11300
H640        H  0.03180045  0.56208746  0.30093712     0.11300
H641        H  0.04545732  0.61510837  0.27511375     0.11300
H642        H  0.44589318  0.63505913  0.25595728     0.11300
C643        C  0.47145304  0.85917620  0.22210965    -0.14800
C644        C  0.49576660  0.87919655  0.23528242     0.07300
C645        C  0.52769712  0.86989417  0.23046973    -0.14800
C646        C  0.03528789  0.84011300  0.21540133    -0.14800
C647        C  0.01095947  0.81904531  0.20550379     0.07300
C648        C  0.97903380  0.82912792  0.20772056    -0.14800
H649        H  0.44673057  0.86578443  0.22599844     0.11300
H650        H  0.54679600  0.88504682  0.24068775     0.11300
H651        H  0.06000212  0.83277804  0.21440041     0.11300
H652        H  0.95987480  0.81317907  0.20017928     0.11300
C653        C  0.07220148  0.50782723  0.26423773    -0.14800
C654        C  0.07223899  0.98521248  0.29678247     0.07300
C655        C  0.10129656  0.97640056  0.31532207    -0.14800
C656        C  0.13001575  0.98801422  0.29859444    -0.14800
C657        C  0.12977943  0.50835287  0.26317030     0.07300
C658        C  0.10050875  0.51933696  0.24774919    -0.14800
H659        H  0.05009636  0.51532670  0.24966690     0.11300
H660        H  0.10192501  0.95892556  0.34033570     0.11300
H661        H  0.15234184  0.97927914  0.31128119     0.11300
H662        H  0.09943613  0.53546992  0.22116508     0.11300
C663        C  0.32268744  0.98943478  0.23648623    -0.14800
C664        C  0.32218499  0.51241978  0.20423951     0.07300
C665        C  0.35117105  0.52213763  0.18656726    -0.14800
C666        C  0.38015980  0.51060978  0.20324875    -0.14800
C667        C  0.38032190  0.98923069  0.23765742     0.07300
C668        C  0.35120746  0.97780966  0.25260935    -0.14800
H669        H  0.30079283  0.98171100  0.25109230     0.11300
H670        H  0.35149121  0.54011607  0.16216048     0.11300
H671        H  0.40231782  0.51990472  0.19116181     0.11300
H672        H  0.35038194  0.96113462  0.27860623     0.11300
C673        C  0.36918951  0.90019708  0.37626185    -0.14800
C674        C  0.40109630  0.89136576  0.36870825     0.07300
C675        C  0.40743584  0.85966158  0.36019544    -0.14800
C676        C  0.38278874  0.83769858  0.35792920    -0.14800
C677        C  0.35074534  0.84653056  0.36395642     0.07300
C678        C  0.34430635  0.87804673  0.37390117    -0.14800
H679        H  0.36329217  0.92447115  0.38246931     0.11300
H680        H  0.43150459  0.85186262  0.35393523     0.11300
H681        H  0.38894435  0.81374257  0.35021486     0.11300
H682        H  0.32000199  0.88580875  0.37850480     0.11300
C683        C  0.27213208  0.88907403  0.22622766    -0.14800
C684        C  0.24887812  0.86563416  0.22834078     0.07300
C685        C  0.21761010  0.87275452  0.21547362    -0.14800
C686        C  0.20923837  0.90374655  0.20409671    -0.14800
C687        C  0.23212424  0.92775780  0.20548986     0.07300
C688        C  0.26392170  0.91970601  0.21445941    -0.14800
H689        H  0.29633666  0.88406777  0.23616892     0.11300
H690        H  0.19921436  0.85503598  0.21761749     0.11300
H691        H  0.18457948  0.90928009  0.19712939     0.11300
H692        H  0.28224711  0.93745239  0.21447029     0.11300
C693        C  0.29037979  0.65432480  0.27850258    -0.14800
C694        C  0.26864394  0.67340131  0.29927839     0.07300
C695        C  0.23769619  0.66227381  0.30724231    -0.14800
C696        C  0.22790870  0.63320488  0.29125663    -0.14800
C697        C  0.24909675  0.61548873  0.26709719     0.07300
C698        C  0.28078462  0.62559490  0.26282824    -0.14800
H699        H  0.31419379  0.66270073  0.27176239     0.11300
H700        H  0.22049943  0.67709322  0.32278058     0.11300
H701        H  0.20339943  0.62587426  0.29488760     0.11300
H702        H  0.29775016  0.61210602  0.24486966     0.11300
C703        C  0.39121684  0.76807037  0.24641829    -0.14800
C704        C  0.36263450  0.75893211  0.22791903     0.07300
C705        C  0.36339015  0.74022320  0.19189675    -0.14800
C706        C  0.39260770  0.72876924  0.17665031    -0.14800
C707        C  0.42101786  0.73587000  0.19770166     0.07300
C708        C  0.42002554  0.75681985  0.23138891    -0.14800
H709        H  0.39110912  0.78215772  0.27442320     0.11300
H710        H  0.34137931  0.73243318  0.17775484     0.11300
H711        H  0.39273295  0.71253438  0.15086608     0.11300
H712        H  0.44154951  0.76289129  0.24813887     0.11300
C713        C  0.14462787  0.78130796  0.29266064    -0.14800
C714        C  0.17100235  0.76105955  0.29013746     0.07300
C715        C  0.16603553  0.72990031  0.27693519    -0.14800
C716        C  0.13650732  0.72028080  0.26218165    -0.14800
C717        C  0.11080919  0.74113425  0.26166066     0.07300
C718        C  0.11455835  0.77125606  0.27873682    -0.14800
H719        H  0.14762525  0.80532645  0.30264433     0.11300
H720        H  0.18561324  0.71332887  0.27526001     0.11300
H721        H  0.13410042  0.69698182  0.24930924     0.11300
H722        H  0.09487615  0.78777814  0.27823751     0.11300
C723        C  0.26683313  0.73499847  0.47196596    -0.14800
C724        C  0.25295054  0.76163984  0.45280985     0.07300
C725        C  0.23063809  0.77923092  0.47547761    -0.14800
C726        C  0.22313265  0.77083150  0.51699962    -0.14800
C727        C  0.23725160  0.74425223  0.53625619     0.07300
C728        C  0.25883995  0.72622439  0.51298687    -0.14800
H729        H  0.28384156  0.72082570  0.45509366     0.11300
H730        H  0.21957105  0.79988771  0.46142260     0.11300
H731        H  0.20623610  0.78504353  0.53397016     0.11300
H732        H  0.27004473  0.70553849  0.52676008     0.11300
C733        C  0.10168891  0.78321460  0.79576111    -0.14800
C734        C  0.07552083  0.76314929  0.79027428     0.07300
C735        C  0.08110510  0.73285777  0.77443882    -0.14800
C736        C  0.11110346  0.72406038  0.76019817    -0.14800
C737        C  0.13669444  0.74488876  0.76255483     0.07300
C738        C  0.13219233  0.77403617  0.78213116    -0.14800
H739        H  0.09823348  0.80661704  0.80785813     0.11300
H740        H  0.06174342  0.71641789  0.77063783     0.11300
H741        H  0.11396745  0.70149418  0.74533280     0.11300
H742        H  0.15162814  0.79064017  0.78382056     0.11300
C743        C  0.32884559  0.77063048  0.71407910    -0.14800
C744        C  0.32750855  0.74347089  0.68956826     0.07300
C745        C  0.35592318  0.72874774  0.67777646    -0.14800
C746        C  0.38501854  0.73936347  0.69387928    -0.14800
C747        C  0.38581313  0.76496072  0.72126629     0.07300
C748        C  0.35777167  0.78134815  0.72973654    -0.14800
H749        H  0.30719125  0.78197649  0.72424866     0.11300
H750        H  0.35535924  0.70739995  0.65972145     0.11300
H751        H  0.40648771  0.72599748  0.68792868     0.11300
H752        H  0.35786345  0.80063357  0.75153549     0.11300
C753        C  0.23306646  0.61749367  0.78236687    -0.14800
C754        C  0.25635282  0.63642790  0.76336375     0.07300
C755        C  0.28813749  0.62568892  0.76322075    -0.14800
C756        C  0.29620807  0.59591456  0.77951237    -0.14800
C757        C  0.27249634  0.57590103  0.79523671     0.07300
C758        C  0.24099806  0.58728065  0.79759800    -0.14800
H759        H  0.20840828  0.62503487  0.78252534     0.11300
H760        H  0.30656063  0.63982686  0.74861851     0.11300
H761        H  0.32050214  0.58758086  0.77667867     0.11300
H762        H  0.22224631  0.57215122  0.80932550     0.11300
C763        C  0.21038804  0.84618408  0.72135839    -0.14800
C764        C  0.23340196  0.82713911  0.70269479     0.07300
C765        C  0.26444623  0.83915039  0.69734511    -0.14800
C766        C  0.27275685  0.86888664  0.71274523    -0.14800
C767        C  0.25030681  0.88669333  0.73469873     0.07300
C768        C  0.21880993  0.87544321  0.73749587    -0.14800
H769        H  0.18650996  0.83739200  0.72649539     0.11300
H770        H  0.28264963  0.82486102  0.68299264     0.11300
H771        H  0.29715598  0.87683646  0.71021616     0.11300
H772        H  0.20092018  0.88870726  0.75413294     0.11300
C773        C  0.52573989  0.98321265  0.51924846    -0.14800
C774        C  0.01043314  0.50839996  0.53906487     0.07300
C775        C  0.98497496  0.52347148  0.51804214    -0.14800
C776        C  0.97533027  0.51385943  0.47807390    -0.14800
C777        C  0.49041382  0.98846194  0.45846787     0.07300
C778        C  0.51563997  0.97316558  0.47968584    -0.14800
H779        H  0.54534679  0.97101205  0.53455080     0.11300
H780        H  0.97273039  0.54299926  0.53229990     0.11300
H781        H  0.95581024  0.52613535  0.46268312     0.11300
H782        H  0.52788584  0.95363269  0.46543101     0.11300
C783        C  0.14081466  0.59183464  0.62953650    -0.14800
C784        C  0.10834304  0.59947302  0.62422585     0.07300
C785        C  0.10021952  0.63147625  0.61903093    -0.14800
C786        C  0.12375715  0.65507376  0.62085431    -0.14800
C787        C  0.15603762  0.64731996  0.62807003     0.07300
C788        C  0.16416982  0.61527663  0.63149216    -0.14800
H789        H  0.14820684  0.56757927  0.63373614     0.11300
H790        H  0.07552361  0.63839201  0.61539765     0.11300
H791        H  0.11647991  0.67946748  0.61826454     0.11300
H792        H  0.18865063  0.60822109  0.63689315     0.11300
C793        C  0.14985255  0.52864112  0.75376512    -0.14800
C794        C  0.12122577  0.51501594  0.76646439     0.07300
C795        C  0.12119427  0.99253195  0.79930244    -0.14800
C796        C  0.15006808  0.98181411  0.81672381    -0.14800
C797        C  0.17892140  0.99357552  0.80116387     0.07300
C798        C  0.17844629  0.51807175  0.77105750    -0.14800
H799        H  0.15027094  0.54573076  0.72823867     0.11300
H800        H  0.09916535  0.98137767  0.80882304     0.11300
H801        H  0.14994758  0.96253623  0.83928862     0.11300
H802        H  0.20042869  0.52742146  0.75842808     0.11300
C803        C  0.40416339  0.53582259  0.70330013    -0.14800
C804        C  0.43028125  0.51511450  0.70554835     0.07300
C805        C  0.42526889  0.98431515  0.72171144    -0.14800
C806        C  0.39605982  0.97546325  0.73876868    -0.14800
C807        C  0.37053725  0.99656777  0.73875891     0.07300
C808        C  0.37436536  0.52652852  0.71951205    -0.14800
H809        H  0.40721005  0.55961110  0.69145948     0.11300
H810        H  0.44458049  0.96745761  0.72332145     0.11300
H811        H  0.39368936  0.95237398  0.75321962     0.11300
H812        H  0.35494193  0.54333853  0.71959395     0.11300
C813        C  0.99031817  0.62281396  0.78894034    -0.14800
C814        C  0.00877460  0.62185341  0.75214670     0.07300
C815        C  0.01797771  0.65019004  0.73280472    -0.14800
C816        C  0.50662169  0.67864077  0.74749697    -0.14800
C817        C  0.48640265  0.67969502  0.78240185     0.07300
C818        C  0.47935668  0.65173447  0.80432022    -0.14800
H819        H  0.98299520  0.60123747  0.80454668     0.11300
H820        H  0.03259224  0.65038744  0.70489340     0.11300
H821        H  0.51289099  0.69994049  0.73037058     0.11300
H822        H  0.46393727  0.65206722  0.83142242     0.11300
C823        C  0.02682864  0.90293438  0.68596609    -0.14800
C824        C  0.01996112  0.93041471  0.70804267     0.07300
C825        C  0.50017141  0.92854799  0.74323398    -0.14800
C826        C  0.48908792  0.89985238  0.75805454    -0.14800
C827        C  0.49788775  0.87190636  0.73843239     0.07300
C828        C  0.01594435  0.87370013  0.70129044    -0.14800
H829        H  0.04198209  0.90384900  0.65855338     0.11300
H830        H  0.49408373  0.94944081  0.76048984     0.11300
H831        H  0.47478604  0.89953306  0.78628240     0.11300
H832        H  0.02296669  0.85248160  0.68543262     0.11300
O833        O  0.59239979  0.04795337  0.64460587    -0.86800
O834        O  0.59201612  0.00303392  0.70608950    -0.83900
C835        C  0.59322666  0.01884009  0.73949433     0.96600
O836        O  0.57014637  0.03591924  0.75024742    -0.83900
O837        O  0.51051483  0.06581220  0.74783081    -0.86600
C838        C  0.51538851  0.09210929  0.73045372     1.01100
O839        O  0.52436703  0.09346107  0.69308110    -0.79300
O840        O  0.55416956  0.07956566  0.62183683    -0.79500
C841        C  0.58355357  0.07433619  0.62988755     1.01100
O842        O  0.54854986  0.51233254  0.59475540    -0.86800
O843        O  0.54136852  0.47020672  0.66156565    -0.83900
C844        C  0.53469486  0.46098572  0.69831465     0.96600
O845        O  0.54020290  0.47876298  0.72868499    -0.83900
O846        O  0.98478420  0.00937825  0.71690524    -0.86500
C847        C  0.96375576  0.02544276  0.69841002     1.01100
O848        O  0.97134869  0.04986796  0.67678580    -0.79400
O849        O  0.00222388  0.03469695  0.60366319    -0.79500
C850        C  0.52092101  0.01888996  0.58137353     1.01100
Cr851      Cr  0.56622769  0.00993216  0.65335818     1.93700
Cr852      Cr  0.52721684  0.02344489  0.73162207     1.93200
Cr853      Cr  0.51460434  0.06192559  0.65078606     1.39100
O854        O  0.53594887  0.03207703  0.67823470    -1.24600
O855        O  0.67461227  0.20100949  0.62719790    -0.86800
O856        O  0.66207868  0.22989107  0.70046417    -0.83900
C857        C  0.66557279  0.23846277  0.73766818     0.96600
O858        O  0.69306545  0.24295806  0.75242557    -0.83900
O859        O  0.72910967  0.18586600  0.75102973    -0.86600
C860        C  0.74776221  0.16471856  0.73785734     1.01100
O861        O  0.76064741  0.16793175  0.70228957    -0.79300
O862        O  0.70783790  0.16412595  0.64983115    -0.79500
C863        C  0.68080860  0.17212980  0.63521080     1.01100
O864        O  0.71647158  0.25404280  0.60442778    -0.86800
O865        O  0.70198191  0.28359754  0.67837925    -0.83900
C866        C  0.72687062  0.29319921  0.69710581     0.96600
O867        O  0.74583231  0.27402631  0.71430442    -0.83900
O868        O  0.78206407  0.22198076  0.72003337    -0.86500
C869        C  0.79674821  0.22733550  0.68618665     1.01100
O870        O  0.78479074  0.21904649  0.65161947    -0.79400
O871        O  0.73657294  0.20769946  0.59317463    -0.79500
C872        C  0.72976272  0.23502974  0.58018364     1.01100
Cr873      Cr  0.69147394  0.24062195  0.65441325     1.93700
Cr874      Cr  0.73617543  0.23021118  0.73050467     1.93200
Cr875      Cr  0.74581386  0.19197340  0.65128221     1.39100
O876        O  0.72411548  0.22101380  0.67873861    -1.24600
O877        O  0.79567828  0.32890716  0.36324158    -0.86800
O878        O  0.76551463  0.34011182  0.28980751    -0.83900
C879        C  0.75577907  0.33690190  0.25301851     0.96600
O880        O  0.75057352  0.30985922  0.23886954    -0.83900
O881        O  0.81007530  0.27856514  0.23868453    -0.86600
C882        C  0.83338714  0.26260563  0.25232134     1.01100
O883        O  0.83186066  0.24840981  0.28750742    -0.79300
O884        O  0.83329960  0.29653205  0.34227845    -0.79500
C885        C  0.82504287  0.32288248  0.35636118     1.01100
O886        O  0.74333134  0.28543838  0.38597605    -0.86800
O887        O  0.71229243  0.29780720  0.31181309    -0.83900
C888        C  0.70444260  0.27206659  0.29441924     0.96600
O889        O  0.72510475  0.25503448  0.27773435    -0.83900
O890        O  0.77921651  0.22271225  0.26907983    -0.86500
C891        C  0.77632285  0.20676811  0.30261368     1.01100
O892        O  0.78167751  0.21918689  0.33747860    -0.79400
O893        O  0.79019940  0.26465657  0.39708993    -0.79500
C894        C  0.76252095  0.27100990  0.40967850     1.01100
Cr895      Cr  0.75573849  0.31066572  0.33591428     1.93700
Cr896      Cr  0.76712417  0.26786271  0.26004304     1.93200
Cr897      Cr  0.80683927  0.25869949  0.33912761     1.39100
O898        O  0.77658610  0.27949388  0.31182880    -1.24600
O899        O  0.95433670  0.40690077  0.35143048    -0.86800
O900        O  0.00355949  0.40956032  0.29495883    -0.83900
C901        C  0.98877468  0.40698608  0.26057535     0.96600
O902        O  0.97017238  0.42860567  0.24788468    -0.83900
O903        O  0.93684144  0.48677225  0.24615136    -0.86600
C904        C  0.90975906  0.48184899  0.26173589     1.01100
O905        O  0.90743211  0.47237454  0.29911920    -0.79300
O906        O  0.92170664  0.44388478  0.37317568    -0.79500
C907        C  0.92719351  0.41523834  0.36474783     1.01100
O908        O  0.48704158  0.45084801  0.40412622    -0.86800
O909        O  0.53214284  0.46062923  0.34094844    -0.83900
C910        C  0.54219841  0.46818125  0.30477133     0.96600
O911        O  0.52564463  0.46176889  0.27308246    -0.83900
O912        O  0.99161349  0.01525308  0.28081513    -0.86500
C913        C  0.97350663  0.03460585  0.29836417     1.01100
O914        O  0.94859566  0.02554210  0.31761310    -0.79400
O915        O  0.96455984  0.99641213  0.39220434    -0.79500
C916        C  0.98019239  0.47807931  0.41601914     1.01100
Cr917      Cr  0.99263990  0.43413849  0.34605078     1.93700
Cr918      Cr  0.97995071  0.47222969  0.26602192     1.93200
Cr919      Cr  0.93812113  0.48296036  0.34373883     1.39100
O920        O  0.96991936  0.46320259  0.31882456    -1.24600
O921        O  0.91234217  0.29594035  0.84481281    -0.86800
O922        O  0.91401182  0.25235775  0.78273635    -0.83900
C923        C  0.91316383  0.26880642  0.74922316     0.96600
O924        O  0.93619441  0.28631589  0.73912079    -0.83900
O925        O  0.99594305  0.31586240  0.74286019    -0.86600
C926        C  0.99093042  0.34178195  0.76011300     1.01100
O927        O  0.98138357  0.34234912  0.79725714    -0.79300
O928        O  0.95033555  0.32698545  0.86800145    -0.79500
C929        C  0.92097367  0.32169065  0.86057368     1.01100
O930        O  0.95544927  0.25912256  0.89519573    -0.86800
O931        O  0.96413488  0.21845872  0.82841013    -0.83900
C932        C  0.97136028  0.21010632  0.79179970     0.96600
O933        O  0.96612140  0.22859262  0.76135224    -0.83900
O934        O  0.52142827  0.25865384  0.77472971    -0.86500
C935        C  0.54192032  0.27385740  0.79472977     1.01100
O936        O  0.53387596  0.29790991  0.81583644    -0.79400
O937        O  0.50173085  0.28209012  0.88806611    -0.79500
C938        C  0.98230637  0.26637876  0.91000544     1.01100
Cr939      Cr  0.93889456  0.25806671  0.83610649     1.93700
Cr940      Cr  0.97903531  0.27331094  0.75882814     1.93200
Cr941      Cr  0.99023845  0.30990708  0.84013442     1.39100
O942        O  0.96944166  0.28074764  0.81206626    -1.24600
O943        O  0.82978104  0.44789872  0.87315599    -0.86800
O944        O  0.84459051  0.47933669  0.80071211    -0.83900
C945        C  0.84166826  0.48882087  0.76333809     0.96600
O946        O  0.81442736  0.49287418  0.74749764    -0.83900
O947        O  0.77865598  0.43538295  0.74758209    -0.86600
C948        C  0.75938266  0.41434017  0.76021761     1.01100
O949        O  0.74572262  0.41722437  0.79522906    -0.79300
O950        O  0.79615948  0.41201273  0.85064944    -0.79500
C951        C  0.82330778  0.41932183  0.86498238     1.01100
O952        O  0.78689149  0.00078351  0.89468617    -0.86800
O953        O  0.80341032  0.03191150  0.82144580    -0.83900
C954        C  0.77920490  0.04187026  0.80105684     0.96600
O955        O  0.76092665  0.02308848  0.78277232    -0.83900
O956        O  0.72513455  0.47108315  0.77516438    -0.86500
C957        C  0.70924021  0.47676963  0.80765086     1.01100
O958        O  0.71976318  0.46813277  0.84326159    -0.79400
O959        O  0.76544533  0.45494823  0.90524947    -0.79500
C960        C  0.77174596  0.48203876  0.91818907     1.01100
Cr961      Cr  0.81355352  0.48841168  0.84576323     1.93700
Cr962      Cr  0.77108655  0.47954493  0.76740834     1.93200
Cr963      Cr  0.75858481  0.44042621  0.84662285     1.39100
O964        O  0.78158377  0.46946594  0.81992179    -1.24600
O965        O  0.54135597  0.15868625  0.14779988    -0.86800
O966        O  0.49036617  0.15990417  0.20256720    -0.83900
C967        C  0.50431966  0.15686581  0.23757482     0.96600
O968        O  0.52250413  0.17834179  0.25058799    -0.83900
O969        O  0.55490527  0.23708848  0.25239054    -0.86600
C970        C  0.58226126  0.23330149  0.23720569     1.01100
O971        O  0.58554331  0.22447461  0.20006549    -0.79300
O972        O  0.57244709  0.19723526  0.12583005    -0.79500
C973        C  0.56811566  0.16821869  0.13421480     1.01100
O974        O  0.00898012  0.20264025  0.09392231    -0.86800
O975        O  0.96205887  0.21150218  0.15519820    -0.83900
C976        C  0.95124714  0.21867739  0.19090851     0.96600
O977        O  0.96713522  0.21159365  0.22324401    -0.83900
O978        O  0.50022611  0.26561171  0.21648725    -0.86500
C979        C  0.51844176  0.28552237  0.19969078     1.01100
O980        O  0.54354668  0.27705356  0.18069490    -0.79400
O981        O  0.52860714  0.24907455  0.10583142    -0.79500
C982        C  0.51494685  0.23035557  0.08146381     1.01100
Cr983      Cr  0.50215582  0.18537992  0.15172279     1.93700
Cr984      Cr  0.51240825  0.22232296  0.23175098     1.93200
Cr985      Cr  0.55499112  0.23534060  0.15487569     1.39100
O986        O  0.52357082  0.21440298  0.17935391    -1.24600
O987        O  0.70174782  0.08940533  0.14944037    -0.86800
O988        O  0.75189562  0.08675465  0.20554750    -0.83900
C989        C  0.73875169  0.08909040  0.24096539     0.96600
O990        O  0.71987347  0.06796705  0.25388231    -0.83900
O991        O  0.68606041  0.01051064  0.25489762    -0.86600
C992        C  0.65899203  0.01481238  0.23874242     1.01100
O993        O  0.65646203  0.02284183  0.20074992    -0.85700
O994        O  0.67084328  0.05142637  0.12684237    -0.79500
C995        C  0.67511383  0.08024135  0.13526736     1.01100
O996        O  0.73501359  0.04614509  0.09683071    -0.86800
O997        O  0.78104920  0.03636486  0.16010534    -0.83900
C998        C  0.79148643  0.02869831  0.19626243     0.96600
O999        O  0.77481767  0.03423684  0.22809016    -0.83900
O1000       O  0.74054161  0.48091398  0.22093674    -0.86500
C1001       C  0.72321810  0.46139149  0.20237192     1.01100
O1002       O  0.69837568  0.47026773  0.18274075    -0.79400
O1003       O  0.71508355  0.49973375  0.10888660    -0.79500
C1004       C  0.72957765  0.01859927  0.08475745     1.01100
Cr1005     Cr  0.74076922  0.06244529  0.15483638     1.93700
Cr1006     Cr  0.72910268  0.02422196  0.23516629     1.93200
Cr1007     Cr  0.68771276  0.01269151  0.15665790     1.39100
O1008       O  0.71881799  0.03308480  0.18219023    -1.24600
C1009       C  0.62696029  0.15666315  0.12864119    -0.14800
C1010       C  0.59531128  0.14565549  0.12940733     0.07300
C1011       C  0.59039404  0.11296733  0.12923910    -0.14800
C1012       C  0.61631513  0.09194722  0.12903378    -0.14800
C1013       C  0.64796384  0.10293339  0.12988491     0.07300
C1014       C  0.65288651  0.13563033  0.12932676    -0.14800
H1015       H  0.63175860  0.18164955  0.12924878     0.11300
H1016       H  0.56646672  0.10358614  0.13008616     0.11300
H1017       H  0.61150980  0.06695015  0.12997175     0.11300
H1018       H  0.67681919  0.14498912  0.13022758     0.11300
C1019       C  0.77015195  0.02022177  0.97782869    -0.14800
C1020       C  0.76118169  0.49135410  0.96101891     0.07300
C1021       C  0.74145840  0.47141871  0.98525181    -0.14800
C1022       C  0.73119297  0.48013444  0.02532412    -0.14800
C1023       C  0.74022966  0.00900890  0.04212008     0.07300
C1024       C  0.75986897  0.02895172  0.01783936    -0.14800
H1025       H  0.78526282  0.03618434  0.96019496     0.11300
H1026       H  0.73379271  0.44903666  0.97316574     0.11300
H1027       H  0.71599695  0.46423412  0.04293878     0.11300
H1028       H  0.76746160  0.05137970  0.02983742     0.11300
C1029       C  0.97754207  0.23018696  0.97269814    -0.14800
C1030       C  0.99085895  0.25709641  0.95376779     0.07300
C1031       C  0.51204400  0.27552850  0.97731258    -0.14800
C1032       C  0.51943168  0.26728075  0.01900326    -0.14800
C1033       C  0.50641659  0.24009939  0.03776308     0.07300
C1034       C  0.98548151  0.22156356  0.01400053    -0.14800
H1035       H  0.96126092  0.21556598  0.95535271     0.11300
H1036       H  0.52250195  0.29656084  0.96369851     0.11300
H1037       H  0.53564825  0.28195296  0.03636273     0.11300
H1038       H  0.97501194  0.20047015  0.02741705     0.11300
C1039       C  0.90408515  0.37775143  0.87643526    -0.14800
C1040       C  0.89604287  0.34621937  0.86870185     0.07300
C1041       C  0.86354871  0.33882203  0.86426032    -0.14800
C1042       C  0.84002502  0.36228813  0.86524968    -0.14800
C1043       C  0.84808318  0.39406083  0.87074389     0.07300
C1044       C  0.88042237  0.40135209  0.87745241    -0.14800
H1045       H  0.92879583  0.38444632  0.87979823     0.11300
H1046       H  0.85625404  0.31488444  0.85843011     0.11300
H1047       H  0.81549085  0.35558718  0.86016039     0.11300
H1048       H  0.88763996  0.42551694  0.88161480     0.11300
C1049       C  0.95692162  0.08974750  0.28245928    -0.14800
C1050       C  0.98102374  0.06826977  0.29314734     0.07300
C1051       C  0.51282479  0.07824844  0.29238889    -0.14800
C1052       C  0.52066558  0.10850307  0.27787889    -0.14800
C1053       C  0.49668053  0.12875291  0.26309213     0.07300
C1054       C  0.96480931  0.11966076  0.26711039    -0.14800
H1055       H  0.93219252  0.08257686  0.28271067     0.11300
H1056       H  0.53180616  0.06209556  0.30099204     0.11300
H1057       H  0.54546066  0.11511645  0.27515425     0.11300
H1058       H  0.94592321  0.13510926  0.25605317     0.11300
C1059       C  0.97148855  0.35917203  0.22214814    -0.14800
C1060       C  0.99580769  0.37920920  0.23525696     0.07300
C1061       C  0.02773655  0.36991417  0.23040047    -0.14800
C1062       C  0.53528190  0.34011354  0.21546563    -0.14800
C1063       C  0.51096030  0.31904949  0.20553169     0.07300
C1064       C  0.47903269  0.32913119  0.20770363    -0.14800
H1065       H  0.94676768  0.36577283  0.22607583     0.11300
H1066       H  0.04683986  0.38507873  0.24057281     0.11300
H1067       H  0.55999665  0.33277757  0.21449634     0.11300
H1068       H  0.45988000  0.31318238  0.20013263     0.11300
C1069       C  0.57219944  0.00777426  0.26431662    -0.14800
C1070       C  0.57223906  0.48513517  0.29686458     0.07300
C1071       C  0.60129594  0.47627671  0.31537008    -0.14800
C1072       C  0.63002093  0.48788619  0.29865107    -0.14800
C1073       C  0.62977851  0.00827735  0.26321959     0.07300
C1074       C  0.60050733  0.01928471  0.24782952    -0.14800
H1075       H  0.55009375  0.01529619  0.24976801     0.11300
H1076       H  0.60191694  0.45877255  0.34034817     0.11300
H1077       H  0.65234428  0.47911893  0.31130730     0.11300
H1078       H  0.59943385  0.03544118  0.22127080     0.11300
C1079       C  0.82268608  0.48949383  0.23659705    -0.14800
C1080       C  0.82217661  0.01244411  0.20428747     0.07300
C1081       C  0.85115721  0.02214445  0.18658251    -0.14800
C1082       C  0.88015028  0.01061502  0.20324927    -0.14800
C1083       C  0.88032010  0.48922798  0.23766020     0.07300
C1084       C  0.85120890  0.47785192  0.25268339    -0.14800
H1085       H  0.80079964  0.48180581  0.25125802     0.11300
H1086       H  0.85147115  0.04010814  0.16215649     0.11300
H1087       H  0.90230575  0.01989507  0.19113393     0.11300
H1088       H  0.85039018  0.46120162  0.27870887     0.11300
C1089       C  0.86926282  0.40013822  0.37628574    -0.14800
C1090       C  0.90115940  0.39134225  0.36859062     0.07300
C1091       C  0.90749634  0.35966634  0.35990269    -0.14800
C1092       C  0.88285799  0.33769603  0.35763000    -0.14800
C1093       C  0.85082382  0.34649014  0.36382853     0.07300
C1094       C  0.84438718  0.37797895  0.37392087    -0.14800
H1095       H  0.86336644  0.42439152  0.38262439     0.11300
H1096       H  0.93155497  0.35189615  0.35351644     0.11300
H1097       H  0.88901245  0.31376514  0.34978673     0.11300
H1098       H  0.82008857  0.38571298  0.37865395     0.11300
C1099       C  0.77222246  0.38909102  0.22637512    -0.14800
C1100       C  0.74899885  0.36561493  0.22832898     0.07300
C1101       C  0.71775633  0.37270711  0.21532527    -0.14800
C1102       C  0.70936946  0.40370212  0.20397702    -0.14800
C1103       C  0.73221426  0.42774517  0.20553157     0.07300
C1104       C  0.76399918  0.41972488  0.21463460    -0.14800
H1105       H  0.79640824  0.38410832  0.23642065     0.11300
H1106       H  0.69938178  0.35496105  0.21734190     0.11300
H1107       H  0.68472184  0.40920799  0.19689946     0.11300
H1108       H  0.78229940  0.43749227  0.21477010     0.11300
C1109       C  0.79041433  0.15427715  0.27847055    -0.14800
C1110       C  0.76870137  0.17335895  0.29927620     0.07300
C1111       C  0.73776306  0.16223437  0.30731038    -0.14800
C1112       C  0.72795331  0.13316603  0.29134822    -0.14800
C1113       C  0.74911099  0.11544960  0.26714580     0.07300
C1114       C  0.78079859  0.12554657  0.26282418    -0.14800
H1115       H  0.81422228  0.16264979  0.27168353     0.11300
H1116       H  0.72058555  0.17705835  0.32287694     0.11300
H1117       H  0.70344654  0.12583981  0.29502412     0.11300
H1118       H  0.79774309  0.11205426  0.24483646     0.11300
C1119       C  0.89125846  0.26806478  0.24630504    -0.14800
C1120       C  0.86267961  0.25888041  0.22784166     0.07300
C1121       C  0.86343574  0.24014144  0.19184834    -0.14800
C1122       C  0.89265613  0.22870206  0.17659882    -0.14800
C1123       C  0.92106549  0.23584792  0.19762065     0.07300
C1124       C  0.92006995  0.25682700  0.23127419    -0.14800
H1125       H  0.89114802  0.28217589  0.27428844     0.11300
H1126       H  0.84142632  0.23231777  0.17773660     0.11300
H1127       H  0.89278656  0.21244102  0.15084366     0.11300
H1128       H  0.94159354  0.26292636  0.24800487     0.11300
C1129       C  0.64469121  0.28131148  0.29258568    -0.14800
C1130       C  0.67105867  0.26105349  0.29006122     0.07300
C1131       C  0.66607874  0.22989640  0.27685812    -0.14800
C1132       C  0.63654252  0.22028364  0.26212309    -0.14800
C1133       C  0.61084751  0.24114106  0.26161921     0.07300
C1134       C  0.61461346  0.27126660  0.27867908    -0.14800
H1135       H  0.64769883  0.30532995  0.30256531     0.11300
H1136       H  0.68565026  0.21331755  0.27517924     0.11300
H1137       H  0.63412493  0.19698370  0.24925707     0.11300
H1138       H  0.59493605  0.28779419  0.27818643     0.11300
C1139       C  0.76687557  0.23493133  0.47191561    -0.14800
C1140       C  0.75301838  0.26158190  0.45274970     0.07300
C1141       C  0.73070722  0.27918601  0.47540152    -0.14800
C1142       C  0.72318032  0.27079508  0.51691872    -0.14800
C1143       C  0.73727373  0.24420923  0.53618876     0.07300
C1144       C  0.75885779  0.22616345  0.51293337    -0.14800
H1145       H  0.78388076  0.22074775  0.45505375     0.11300
H1146       H  0.71965786  0.29984870  0.46133753     0.11300
H1147       H  0.70628763  0.28502006  0.53387593     0.11300
H1148       H  0.77004246  0.20547055  0.52671737     0.11300
C1149       C  0.60169373  0.28314170  0.79582000    -0.14800
C1150       C  0.57551868  0.26309379  0.79027689     0.07300
C1151       C  0.58109843  0.23282109  0.77437341    -0.14800
C1152       C  0.61109823  0.22403331  0.76012238    -0.14800
C1153       C  0.63669660  0.24484983  0.76253493     0.07300
C1154       C  0.63219794  0.27397168  0.78217927    -0.14800
H1155       H  0.59824434  0.30652826  0.80797229     0.11300
H1156       H  0.56173299  0.21639193  0.77052397     0.11300
H1157       H  0.61395766  0.20148672  0.74520394     0.11300
H1158       H  0.65163812  0.29056732  0.78391457     0.11300
C1159       C  0.82894057  0.27076395  0.71353401    -0.14800
C1160       C  0.82756869  0.24342689  0.68937550     0.07300
C1161       C  0.85595509  0.22846454  0.67800574    -0.14800
C1162       C  0.88503504  0.23905105  0.69417760    -0.14800
C1163       C  0.88585325  0.26485792  0.72121177     0.07300
C1164       C  0.85786205  0.28145890  0.72925340    -0.14800
H1165       H  0.80729809  0.28228032  0.72340486     0.11300
H1166       H  0.85535599  0.20697451  0.66024972     0.11300
H1167       H  0.90645880  0.22552928  0.68856034     0.11300
H1168       H  0.85796658  0.30091310  0.75078518     0.11300
C1169       C  0.73327031  0.11762088  0.78261403    -0.14800
C1170       C  0.75650516  0.13644620  0.76330229     0.07300
C1171       C  0.78825506  0.12560866  0.76289640    -0.14800
C1172       C  0.79632461  0.09584639  0.77923134    -0.14800
C1173       C  0.77264273  0.07593838  0.79527346     0.07300
C1174       C  0.74119409  0.08741471  0.79788781    -0.14800
H1175       H  0.70863849  0.12523685  0.78299106     0.11300
H1176       H  0.80664335  0.13965912  0.74806669     0.11300
H1177       H  0.82057551  0.08743322  0.77619277     0.11300
H1178       H  0.72246239  0.07236172  0.80984913     0.11300
C1179       C  0.71034983  0.34615103  0.72157651    -0.14800
C1180       C  0.73333032  0.32718607  0.70270273     0.07300
C1181       C  0.76432570  0.33927625  0.69717755    -0.14800
C1182       C  0.77263109  0.36900873  0.71260647    -0.14800
C1183       C  0.75022794  0.38673375  0.73476172     0.07300
C1184       C  0.71876735  0.37540548  0.73773392    -0.14800
H1185       H  0.68651128  0.33729809  0.72684915     0.11300
H1186       H  0.78250070  0.32505430  0.68264995     0.11300
H1187       H  0.79700020  0.37701951  0.70992610     0.11300
H1188       H  0.70090747  0.38860390  0.75451630     0.11300
C1189       C  0.02568265  0.48318391  0.51926183    -0.14800
C1190       C  0.51045795  0.00839427  0.53908643     0.07300
C1191       C  0.48495617  0.02342546  0.51810442    -0.14800
C1192       C  0.47529981  0.01380939  0.47814367    -0.14800
C1193       C  0.99041212  0.48847689  0.45843269     0.07300
C1194       C  0.01559422  0.47314229  0.47969275    -0.14800
H1195       H  0.04525591  0.47095270  0.53459666     0.11300
H1196       H  0.47268313  0.04292437  0.53238971     0.11300
H1197       H  0.45574451  0.02605329  0.46278627     0.11300
H1198       H  0.02781480  0.45358198  0.46546735     0.11300
C1199       C  0.64082328  0.09183625  0.62955628    -0.14800
C1200       C  0.60835033  0.09947229  0.62425770     0.07300
C1201       C  0.60022547  0.13147469  0.61905033    -0.14800
C1202       C  0.62376281  0.15507403  0.62086050    -0.14800
C1203       C  0.65604426  0.14732278  0.62807505     0.07300
C1204       C  0.66417801  0.11527983  0.63149866    -0.14800
H1205       H  0.64821698  0.06758154  0.63375796     0.11300
H1206       H  0.57552879  0.13838890  0.61541949     0.11300
H1207       H  0.61648467  0.17946714  0.61826414     0.11300
H1208       H  0.68866013  0.10822599  0.63689205     0.11300
C1209       C  0.64977377  0.02872986  0.75407371    -0.14800
C1210       C  0.62116742  0.01496654  0.76658973     0.07300
C1211       C  0.62116517  0.49229542  0.79921359    -0.14800
C1212       C  0.65003869  0.48162221  0.81668157    -0.14800
C1213       C  0.67888242  0.49356238  0.80133456     0.07300
C1214       C  0.67837139  0.01818809  0.77139382    -0.14800
H1215       H  0.65018351  0.04591258  0.72865863     0.11300
H1216       H  0.59915796  0.48101935  0.80856632     0.11300
H1217       H  0.64994101  0.46224899  0.83910001     0.11300
H1218       H  0.70034944  0.02764745  0.75889508     0.11300
C1219       C  0.90415062  0.03578855  0.70332762    -0.14800
C1220       C  0.93028449  0.01510255  0.70562452     0.07300
C1221       C  0.92528831  0.48433651  0.72176669    -0.14800
C1222       C  0.89608425  0.47547655  0.73883374    -0.14800
C1223       C  0.87055812  0.49657696  0.73883999     0.07300
C1224       C  0.87435288  0.02648486  0.71953208    -0.14800
H1225       H  0.90718180  0.05956801  0.69144735     0.11300
H1226       H  0.94460103  0.46747915  0.72335429     0.11300
H1227       H  0.89371909  0.45238303  0.75327264     0.11300
H1228       H  0.85491553  0.04328014  0.71957120     0.11300
C1229       C  0.49032394  0.12278847  0.78901957    -0.14800
C1230       C  0.50873265  0.12182661  0.75218252     0.07300
C1231       C  0.51789069  0.15016457  0.73280583    -0.14800
C1232       C  0.00663865  0.17867360  0.74749023    -0.14800
C1233       C  0.98641032  0.17972928  0.78238544     0.07300
C1234       C  0.97934483  0.15176973  0.80429253    -0.14800
H1235       H  0.48303898  0.10121211  0.80465789     0.11300
H1236       H  0.53246837  0.15036601  0.70486109     0.11300
H1237       H  0.01291841  0.19997366  0.73037139     0.11300
H1238       H  0.96391522  0.15210487  0.83138441     0.11300
C1239       C  0.52676733  0.40290408  0.68586237    -0.14800
C1240       C  0.51992961  0.43038098  0.70796587     0.07300
C1241       C  0.00014879  0.42859219  0.74323602    -0.14800
C1242       C  0.98905185  0.39990136  0.75805944    -0.14800
C1243       C  0.99787347  0.37194945  0.73846977     0.07300
C1244       C  0.51589243  0.37366547  0.70119352    -0.14800
H1245       H  0.54189517  0.40382311  0.65842494     0.11300
H1246       H  0.99404734  0.44949302  0.76046644     0.11300
H1247       H  0.97472150  0.39958930  0.78626241     0.11300
H1248       H  0.52289404  0.35244937  0.68531521     0.11300
O1249       O  0.59239511  0.54799071  0.64470431    -0.86800
O1250       O  0.59198309  0.50308126  0.70619714    -0.83900
C1251       C  0.59318431  0.51888822  0.73960418     0.96600
O1252       O  0.57009631  0.53596061  0.75034783    -0.83900
O1253       O  0.51048270  0.56586855  0.74786119    -0.86600
C1254       C  0.51538911  0.59216118  0.73049178     1.01100
O1255       O  0.52438713  0.59351031  0.69312802    -0.79300
O1256       O  0.55418158  0.57960362  0.62189209    -0.79500
C1257       C  0.58355760  0.57437160  0.62997440     1.01100
O1258       O  0.54855271  0.01228999  0.59469179    -0.86800
O1259       O  0.54139311  0.97014846  0.66150045    -0.83900
C1260       C  0.53474074  0.96092955  0.69825925     0.96600
O1261       O  0.54026263  0.97871354  0.72861808    -0.83900
O1262       O  0.98483055  0.50931769  0.71687160    -0.86500
C1263       C  0.96378567  0.52537545  0.69839773     1.01100
O1264       O  0.97136681  0.54979731  0.67675296    -0.79400
O1265       O  0.00221964  0.53463620  0.60360901    -0.79500
C1266       C  0.52092721  0.51895505  0.58141445     1.01100
Cr1267     Cr  0.56621337  0.50997799  0.65343959     1.93700
Cr1268     Cr  0.52717363  0.52349855  0.73167469     1.93200
Cr1269     Cr  0.51461219  0.56198779  0.65082832     1.39100
O1270       O  0.53593243  0.53212962  0.67829321    -1.24600
O1271       O  0.67464020  0.70099644  0.62736272    -0.86800
O1272       O  0.66208823  0.72986451  0.70063117    -0.83900
C1273       C  0.66557141  0.73841573  0.73784767     0.96600
O1274       O  0.69306327  0.74293110  0.75260623    -0.83900
O1275       O  0.72913709  0.68586410  0.75122702    -0.86600
C1276       C  0.74779192  0.66471716  0.73806241     1.01100
O1277       O  0.76066218  0.66791226  0.70248180    -0.79300
O1278       O  0.70784532  0.66410487  0.65002378    -0.79500
C1279       C  0.68082388  0.67211835  0.63538923     1.01100
O1280       O  0.71650682  0.75402281  0.60461583    -0.86800
O1281       O  0.70199118  0.78357061  0.67853283    -0.83900
C1282       C  0.72689538  0.79317373  0.69721393     0.96600
O1283       O  0.74584280  0.77400851  0.71445240    -0.83900
O1284       O  0.78207886  0.72197888  0.72019643    -0.86500
C1285       C  0.79675893  0.72731626  0.68634005     1.01100
O1286       O  0.78479978  0.71901032  0.65178359    -0.79400
O1287       O  0.73658659  0.70767399  0.59334503    -0.79500
C1288       C  0.72979582  0.73501358  0.58036464     1.01100
Cr1289     Cr  0.69149233  0.74059921  0.65458488     1.93700
Cr1290     Cr  0.73618768  0.73020089  0.73067957     1.93200
Cr1291     Cr  0.74582428  0.69194559  0.65146333     1.39100
O1292       O  0.72412871  0.72099052  0.67891795    -1.24600
O1293       O  0.79565106  0.82902632  0.36338809    -0.86800
O1294       O  0.76544344  0.84022184  0.28996973    -0.83900
C1295       C  0.75576945  0.83699583  0.25315303     0.96600
O1296       O  0.75061604  0.80995079  0.23899391    -0.83900
O1297       O  0.81014601  0.77872747  0.23886159    -0.86600
C1298       C  0.83345402  0.76275530  0.25248294     1.01100
O1299       O  0.83193201  0.74856442  0.28767423    -0.79300
O1300       O  0.83330331  0.79664030  0.34252620    -0.79500
C1301       C  0.82502456  0.82299482  0.35657679     1.01100
O1302       O  0.74335264  0.78551079  0.38616603    -0.86800
O1303       O  0.71229594  0.79782104  0.31198252    -0.83900
C1304       C  0.70448184  0.77209532  0.29451916     0.96600
O1305       O  0.72516783  0.75510972  0.27779768    -0.83900
O1306       O  0.77932598  0.72284429  0.26917167    -0.86500
C1307       C  0.77641566  0.70687399  0.30267843     1.01100
O1308       O  0.78171579  0.71927829  0.33756552    -0.79400
O1309       O  0.79020815  0.76469436  0.39724889    -0.79500
C1310       C  0.76254004  0.77106328  0.40985475     1.01100
Cr1311     Cr  0.75572514  0.81074320  0.33607793     1.93700
Cr1312     Cr  0.76719228  0.76798025  0.26017102     1.93200
Cr1313     Cr  0.80686495  0.75880000  0.33928673     1.39100
O1314       O  0.77661328  0.77959815  0.31198074    -1.24600
O1315       O  0.95429410  0.90699402  0.35151356    -0.86800
O1316       O  0.00355962  0.90959187  0.29507623    -0.83900
C1317       C  0.98877766  0.90696284  0.26070166     0.96600
O1318       O  0.97016436  0.92855897  0.24796913    -0.83900
O1319       O  0.93682322  0.98671579  0.24606521    -0.86600
C1320       C  0.90973641  0.98188466  0.26168780     1.01100
O1321       O  0.90739973  0.97253035  0.29912481    -0.79300
O1322       O  0.92167061  0.94402006  0.37317728    -0.79500
C1323       C  0.92715500  0.91535846  0.36481976     1.01100
O1324       O  0.48711205  0.95075206  0.40408318    -0.86800
O1325       O  0.53219195  0.96054413  0.34087908    -0.83900
C1326       C  0.54223251  0.96811558  0.30470057     0.96600
O1327       O  0.52565274  0.96174255  0.27302508    -0.83900
O1328       O  0.99164099  0.51523942  0.28097510    -0.86500
C1329       C  0.97346100  0.53455823  0.29845988     1.01100
O1330       O  0.94853513  0.52544588  0.31763601    -0.79400
O1331       O  0.96453252  0.49630084  0.39220950    -0.79500
C1332       C  0.98018935  0.97818423  0.41604231     1.01100
Cr1333     Cr  0.99260449  0.93421550  0.34611398     1.93700
Cr1334     Cr  0.97993078  0.97221568  0.26599994     1.93200
Cr1335     Cr  0.93812591  0.98307835  0.34373110     1.39100
O1336       O  0.96989613  0.96326482  0.31882915    -1.24600
O1337       O  0.91241113  0.79595336  0.84468694    -0.86800
O1338       O  0.91409552  0.75234358  0.78263985    -0.83900
C1339       C  0.91324025  0.76878776  0.74912404     0.96600
O1340       O  0.93626871  0.78629154  0.73900128    -0.83900
O1341       O  0.99598291  0.81589064  0.74277235    -0.86600
C1342       C  0.99091589  0.84180276  0.76002377     1.01100
O1343       O  0.98134707  0.84235127  0.79715608    -0.79300
O1344       O  0.95039769  0.82697307  0.86793703    -0.79500
C1345       C  0.92104190  0.82170030  0.86046003     1.01100
O1346       O  0.95554763  0.75915335  0.89508645    -0.86800
O1347       O  0.96421210  0.71845946  0.82831624    -0.83900
C1348       C  0.97144411  0.71009414  0.79171075     0.96600
O1349       O  0.96623387  0.72858036  0.76125078    -0.83900
O1350       O  0.52137719  0.75860944  0.77480779    -0.86500
C1351       C  0.54187168  0.77376876  0.79486881     1.01100
O1352       O  0.53383296  0.79780456  0.81601788    -0.79400
O1353       O  0.50160419  0.78203020  0.88818738    -0.79500
C1354       C  0.98241474  0.76640182  0.90987932     1.01100
Cr1355     Cr  0.93897198  0.75807295  0.83600516     1.93700
Cr1356     Cr  0.97911020  0.77331637  0.75872630     1.93200
Cr1357     Cr  0.99028618  0.80993193  0.84001843     1.39100
O1358       O  0.96950944  0.78075340  0.81195995    -1.24600
O1359       O  0.82979860  0.94791684  0.87303072    -0.86800
O1360       O  0.84458542  0.97938576  0.80062129    -0.83900
C1361       C  0.84165862  0.98887238  0.76325129     0.96600
O1362       O  0.81442047  0.99291094  0.74739941    -0.83900
O1363       O  0.77872289  0.93539011  0.74742485    -0.86600
C1364       C  0.75946467  0.91432957  0.76004106     1.01100
O1365       O  0.74580208  0.91718029  0.79505393    -0.79300
O1366       O  0.79623832  0.91199975  0.85045973    -0.79500
C1367       C  0.82337088  0.91933609  0.86481455     1.01100
O1368       O  0.78696638  0.50081895  0.89484242    -0.86800
O1369       O  0.80347203  0.53190767  0.82156270    -0.83900
C1370       C  0.77926556  0.54188127  0.80118949     0.96600
O1371       O  0.76097718  0.52311442  0.78289319    -0.83900
O1372       O  0.72515619  0.97100732  0.77502198    -0.86500
C1373       C  0.70925989  0.97667518  0.80751172     1.01100
O1374       O  0.71978300  0.96803031  0.84311859    -0.79400
O1375       O  0.76547377  0.95486722  0.90509909    -0.79500
C1376       C  0.77170651  0.98197461  0.91802949     1.01100
Cr1377     Cr  0.81352743  0.98842056  0.84564584     1.93700
Cr1378     Cr  0.77109304  0.97953183  0.76727474     1.93200
Cr1379     Cr  0.75863158  0.94036626  0.84646156     1.39100
O1380       O  0.78159353  0.96944442  0.81978182    -1.24600
O1381       O  0.54136556  0.65867533  0.14797043    -0.86800
O1382       O  0.49038462  0.65994514  0.20273577    -0.83900
C1383       C  0.50437239  0.65694564  0.23772358     0.96600
O1384       O  0.52254582  0.67844388  0.25068889    -0.83900
O1385       O  0.55494828  0.73717117  0.25238400    -0.86600
C1386       C  0.58230173  0.73333741  0.23720606     1.01100
O1387       O  0.58556875  0.72449327  0.20006987    -0.79300
O1388       O  0.57243029  0.69720498  0.12587961    -0.79500
C1389       C  0.56811611  0.66819895  0.13435061     1.01100
O1390       O  0.00894243  0.70266402  0.09382914    -0.86800
O1391       O  0.96200477  0.71150259  0.15512056    -0.83900
C1392       C  0.95119113  0.71865171  0.19084327     0.96600
O1393       O  0.96706781  0.71151987  0.22316713    -0.83900
O1394       O  0.50024577  0.76566556  0.21645035    -0.86500
C1395       C  0.51845622  0.78556372  0.19961947     1.01100
O1396       O  0.54356957  0.77707807  0.18065398    -0.79400
O1397       O  0.52857628  0.74903221  0.10586340    -0.79500
C1398       C  0.51490763  0.73029606  0.08152697     1.01100
Cr1399     Cr  0.50216775  0.68536625  0.15183668     1.93700
Cr1400     Cr  0.51243622  0.72239791  0.23178694     1.93200
Cr1401     Cr  0.55499637  0.73533699  0.15488697     1.39100
O1402       O  0.52358369  0.71442303  0.17940753    -1.24600
O1403       O  0.70176264  0.58941988  0.14969952    -0.86800
O1404       O  0.75194400  0.58674351  0.20573458    -0.83900
C1405       C  0.73885202  0.58910815  0.24117526     0.96600
O1406       O  0.71996240  0.56800846  0.25413958    -0.83900
O1407       O  0.68605008  0.51059983  0.25514516    -0.86600
C1408       C  0.65899069  0.51486769  0.23894608     1.01100
O1409       O  0.65647529  0.52283072  0.20092701    -0.85700
O1410       O  0.67087928  0.55144301  0.12705299    -0.79500
C1411       C  0.67513411  0.58025315  0.13551550     1.01100
O1412       O  0.73501606  0.54619236  0.09703193    -0.86800
O1413       O  0.78105094  0.53637568  0.16030274    -0.83900
C1414       C  0.79149560  0.52869361  0.19645116     0.96600
O1415       O  0.77483627  0.53419305  0.22830153    -0.83900
O1416       O  0.74058402  0.98093342  0.22065602    -0.86500
C1417       C  0.72324411  0.96140009  0.20214302     1.01100
O1418       O  0.69836854  0.97026235  0.18256696    -0.79400
O1419       O  0.71502443  0.99970524  0.10868739    -0.79500
C1420       C  0.72962045  0.51864190  0.08495544     1.01100
Cr1421     Cr  0.74078131  0.56245654  0.15505302     1.93700
Cr1422     Cr  0.72911351  0.52423781  0.23540667     1.93200
Cr1423     Cr  0.68774376  0.51270198  0.15685275     1.39100
O1424       O  0.71883525  0.53309578  0.18241646    -1.24600
C1425       C  0.62696101  0.65665625  0.12882087    -0.14800
C1426       C  0.59531657  0.64563913  0.12960228     0.07300
C1427       C  0.59040659  0.61294907  0.12950844    -0.14800
C1428       C  0.61633241  0.59193617  0.12933652    -0.14800
C1429       C  0.64797706  0.60293385  0.13014836     0.07300
C1430       C  0.65289218  0.63563130  0.12954189    -0.14800
H1431       H  0.63175124  0.68164522  0.12938161     0.11300
H1432       H  0.56648187  0.60356232  0.13037921     0.11300
H1433       H  0.61153524  0.56693784  0.13032133     0.11300
H1434       H  0.67682275  0.64499677  0.13041842     0.11300
C1435       C  0.77025561  0.52026940  0.97804167    -0.14800
C1436       C  0.76111801  0.99128442  0.96084217     0.07300
C1437       C  0.74142383  0.97133340  0.98509294    -0.14800
C1438       C  0.73115562  0.98005803  0.02516098    -0.14800
C1439       C  0.74029397  0.50906401  0.04231587     0.07300
C1440       C  0.75997120  0.52899293  0.01806216    -0.14800
H1441       H  0.78539264  0.53621953  0.96042713     0.11300
H1442       H  0.73378835  0.94893432  0.97302687     0.11300
H1443       H  0.71598642  0.96414719  0.04280017     0.11300
H1444       H  0.76758932  0.55140430  0.03008843     0.11300
C1445       C  0.97764478  0.73020304  0.97255554    -0.14800
C1446       C  0.99097614  0.75710895  0.95363663     0.07300
C1447       C  0.51190150  0.77546943  0.97739660    -0.14800
C1448       C  0.51931870  0.76722076  0.01907360    -0.14800
C1449       C  0.50632714  0.74003376  0.03784306     0.07300
C1450       C  0.98555343  0.72158114  0.01386696    -0.14800
H1451       H  0.96136655  0.71558710  0.95519730     0.11300
H1452       H  0.52235174  0.79650253  0.96377405     0.11300
H1453       H  0.53554610  0.78189474  0.03641225     0.11300
H1454       H  0.97506515  0.70049364  0.02727242     0.11300
C1455       C  0.90418483  0.87780669  0.87610238    -0.14800
C1456       C  0.89612616  0.84625029  0.86855112     0.07300
C1457       C  0.86362595  0.83884078  0.86425033    -0.14800
C1458       C  0.84010415  0.86230894  0.86522718    -0.14800
C1459       C  0.84816993  0.89409691  0.87056388     0.07300
C1460       C  0.88052333  0.90141052  0.87710452    -0.14800
H1461       H  0.92890289  0.88451227  0.87933423     0.11300
H1462       H  0.85632240  0.81488663  0.85855407     0.11300
H1463       H  0.81555940  0.85559291  0.86026474     0.11300
H1464       H  0.88774724  0.92558906  0.88112508     0.11300
C1465       C  0.95677325  0.58954347  0.28192324    -0.14800
C1466       C  0.98087797  0.56823343  0.29318761     0.07300
C1467       C  0.51298435  0.57814217  0.29189855    -0.14800
C1468       C  0.52083584  0.60841113  0.27747836    -0.14800
C1469       C  0.49681309  0.62883715  0.26326793     0.07300
C1470       C  0.96465290  0.61942756  0.26647758    -0.14800
H1471       H  0.93208143  0.58224804  0.28180647     0.11300
H1472       H  0.53196932  0.56187917  0.30008447     0.11300
H1473       H  0.54563631  0.61491131  0.27436190     0.11300
H1474       H  0.94578870  0.63473576  0.25500663     0.11300
C1475       C  0.97150423  0.85918374  0.22215264    -0.14800
C1476       C  0.99582567  0.87915294  0.23544317     0.07300
C1477       C  0.02774921  0.86978506  0.23076139    -0.14800
C1478       C  0.53525824  0.84022220  0.21512823    -0.14800
C1479       C  0.51094627  0.81909558  0.20538220     0.07300
C1480       C  0.47900725  0.82912519  0.20768989    -0.14800
H1481       H  0.94678497  0.86584044  0.22593764     0.11300
H1482       H  0.04685580  0.88489399  0.24106740     0.11300
H1483       H  0.55998330  0.83293196  0.21404640     0.11300
H1484       H  0.45985992  0.81313178  0.20025848     0.11300
C1485       C  0.57218245  0.50780177  0.26434633    -0.14800
C1486       C  0.57227910  0.98505416  0.29677144     0.07300
C1487       C  0.60135523  0.97612025  0.31515794    -0.14800
C1488       C  0.63006719  0.98772682  0.29839791    -0.14800
C1489       C  0.62976060  0.50837202  0.26340611     0.07300
C1490       C  0.60050015  0.51932752  0.24791498    -0.14800
H1491       H  0.55009229  0.51526573  0.24970435     0.11300
H1492       H  0.60199488  0.95856822  0.34007555     0.11300
H1493       H  0.65239935  0.97891429  0.31097061     0.11300
H1494       H  0.59944643  0.53543942  0.22130795     0.11300
C1495       C  0.82265838  0.98954448  0.23653658    -0.14800
C1496       C  0.82219433  0.51246241  0.20443791     0.07300
C1497       C  0.85116851  0.52225481  0.18680991    -0.14800
C1498       C  0.88016502  0.51072013  0.20344703    -0.14800
C1499       C  0.88029711  0.98921960  0.23757200     0.07300
C1500       C  0.85117670  0.97790982  0.25265441    -0.14800
H1501       H  0.80077053  0.98190925  0.25123944     0.11300
H1502       H  0.85147023  0.54028502  0.16247113     0.11300
H1503       H  0.90231496  0.52006136  0.19139545     0.11300
H1504       H  0.85034866  0.96132323  0.27875236     0.11300
C1505       C  0.86921094  0.90029497  0.37628513    -0.14800
C1506       C  0.90112105  0.89147084  0.36874373     0.07300
C1507       C  0.90747739  0.85976070  0.36028874    -0.14800
C1508       C  0.88284230  0.83778352  0.35806289    -0.14800
C1509       C  0.85079457  0.84660685  0.36407313     0.07300
C1510       C  0.84433935  0.87812961  0.37396486    -0.14800
H1511       H  0.86330214  0.92457267  0.38244991     0.11300
H1512       H  0.93154976  0.85196657  0.35404167     0.11300
H1513       H  0.88901048  0.81382285  0.35038722     0.11300
H1514       H  0.82003067  0.88588470  0.37855257     0.11300
C1515       C  0.77223769  0.88915904  0.22643598    -0.14800
C1516       C  0.74901486  0.86568525  0.22840674     0.07300
C1517       C  0.71779549  0.87273953  0.21527041    -0.14800
C1518       C  0.70941740  0.90371063  0.20379644    -0.14800
C1519       C  0.73225167  0.92776166  0.20534659     0.07300
C1520       C  0.76402761  0.91976611  0.21455547    -0.14800
H1521       H  0.79640933  0.88419936  0.23656518     0.11300
H1522       H  0.69942598  0.85498875  0.21727786     0.11300
H1523       H  0.68477948  0.90919704  0.19663369     0.11300
H1524       H  0.78232181  0.93753765  0.21468845     0.11300
C1525       C  0.79048007  0.65452251  0.27805647    -0.14800
C1526       C  0.76887075  0.67345165  0.29927779     0.07300
C1527       C  0.73806384  0.66215593  0.30777408    -0.14800
C1528       C  0.72825442  0.63306253  0.29187231    -0.14800
C1529       C  0.74927890  0.61549815  0.26727278     0.07300
C1530       C  0.78087351  0.62577152  0.26249005    -0.14800
H1531       H  0.81418468  0.66302278  0.27092241     0.11300
H1532       H  0.72095638  0.67686684  0.32365793     0.11300
H1533       H  0.70382418  0.62559918  0.29592443     0.11300
H1534       H  0.79773674  0.61240124  0.24421439     0.11300
C1535       C  0.89133110  0.76817027  0.24629077    -0.14800
C1536       C  0.86271326  0.75897327  0.22794340     0.07300
C1537       C  0.86339601  0.74016844  0.19200802    -0.14800
C1538       C  0.89258140  0.72869043  0.17669456    -0.14800
C1539       C  0.92103563  0.73586433  0.19759056     0.07300
C1540       C  0.92011016  0.75689223  0.23119661    -0.14800
H1541       H  0.89127907  0.78232502  0.27423557     0.11300
H1542       H  0.84135696  0.73232777  0.17799423     0.11300
H1543       H  0.89265336  0.71238035  0.15099454     0.11300
H1544       H  0.94166473  0.76299789  0.24785098     0.11300
C1545       C  0.64471500  0.78126610  0.29276803    -0.14800
C1546       C  0.67110830  0.76105093  0.29012110     0.07300
C1547       C  0.66615945  0.72992365  0.27677461    -0.14800
C1548       C  0.63662714  0.72031950  0.26200494    -0.14800
C1549       C  0.61090369  0.74114677  0.26162044     0.07300
C1550       C  0.61464215  0.77122385  0.27883740    -0.14800
H1551       H  0.64769548  0.80525737  0.30287073     0.11300
H1552       H  0.68574838  0.71336809  0.27502395     0.11300
H1553       H  0.63423144  0.69705117  0.24903194     0.11300
H1554       H  0.59494391  0.78772683  0.27845238     0.11300
C1555       C  0.76686626  0.73493305  0.47205567    -0.14800
C1556       C  0.75304811  0.76162258  0.45293241     0.07300
C1557       C  0.73079257  0.77925541  0.47563687    -0.14800
C1558       C  0.72327337  0.77084645  0.51715214    -0.14800
C1559       C  0.73731622  0.74421384  0.53637393     0.07300
C1560       C  0.75885465  0.72614799  0.51307336    -0.14800
H1561       H  0.78383353  0.72072970  0.45515752     0.11300
H1562       H  0.71977959  0.79995194  0.46161394     0.11300
H1563       H  0.70642170  0.78509466  0.53414525     0.11300
H1564       H  0.77000435  0.70542278  0.52681892     0.11300
C1565       C  0.60166863  0.78297004  0.79616163    -0.14800
C1566       C  0.57547168  0.76297797  0.79043430     0.07300
C1567       C  0.58104313  0.73274935  0.77437960    -0.14800
C1568       C  0.61105466  0.72397217  0.76014907    -0.14800
C1569       C  0.63667656  0.74475191  0.76272279     0.07300
C1570       C  0.63218365  0.77380932  0.78253684    -0.14800
H1571       H  0.59823274  0.80631789  0.80844715     0.11300
H1572       H  0.56166605  0.71635438  0.77039223     0.11300
H1573       H  0.61390532  0.70146970  0.74511175     0.11300
H1574       H  0.65163969  0.79037602  0.78441482     0.11300
C1575       C  0.82896898  0.77071722  0.71371617    -0.14800
C1576       C  0.82757665  0.74341360  0.68949691     0.07300
C1577       C  0.85595444  0.72850468  0.67796875    -0.14800
C1578       C  0.88505757  0.73910099  0.69405803    -0.14800
C1579       C  0.88590151  0.76486712  0.72115944     0.07300
C1580       C  0.85791054  0.78142497  0.72934602    -0.14800
H1581       H  0.80733509  0.78219440  0.72369979     0.11300
H1582       H  0.85534068  0.70704391  0.66015085     0.11300
H1583       H  0.90648397  0.72561171  0.68832905     0.11300
H1584       H  0.85803876  0.80084648  0.75092941     0.11300
C1585       C  0.73330082  0.61760191  0.78276036    -0.14800
C1586       C  0.75654313  0.63646175  0.76352977     0.07300
C1587       C  0.78830843  0.62566532  0.76320598    -0.14800
C1588       C  0.79638585  0.59589852  0.77952321    -0.14800
C1589       C  0.77269653  0.57595131  0.79545971     0.07300
C1590       C  0.74123402  0.58739655  0.79801744    -0.14800
H1591       H  0.70865891  0.62518881  0.78307529     0.11300
H1592       H  0.80670182  0.63974745  0.74844218     0.11300
H1593       H  0.82065078  0.58751252  0.77654007     0.11300
H1594       H  0.72249944  0.57231697  0.80990885     0.11300
C1595       C  0.71039518  0.84621096  0.72136910    -0.14800
C1596       C  0.73339428  0.82716009  0.70269123     0.07300
C1597       C  0.76442050  0.83918757  0.69722509    -0.14800
C1598       C  0.77274052  0.86893902  0.71256798    -0.14800
C1599       C  0.75031338  0.88674540  0.73456171     0.07300
C1600       C  0.71882286  0.87548846  0.73743365    -0.14800
H1601       H  0.68652870  0.83741049  0.72657935     0.11300
H1602       H  0.78260428  0.82490205  0.68282660     0.11300
H1603       H  0.79713267  0.87689824  0.70997174     0.11300
H1604       H  0.70094885  0.88875512  0.75409512     0.11300
C1605       C  0.02562152  0.98318687  0.51936229    -0.14800
C1606       C  0.51047119  0.50848311  0.53910854     0.07300
C1607       C  0.48505370  0.52360793  0.51806257    -0.14800
C1608       C  0.47539114  0.51400679  0.47809460    -0.14800
C1609       C  0.99042851  0.98858452  0.45845635     0.07300
C1610       C  0.01552649  0.97316030  0.47978450    -0.14800
H1611       H  0.04512363  0.97088110  0.53475166     0.11300
H1612       H  0.47285094  0.54316644  0.53230627     0.11300
H1613       H  0.45590117  0.52632223  0.46269217     0.11300
H1614       H  0.02767338  0.95353445  0.46561005     0.11300
C1615       C  0.64082683  0.59184894  0.62956851    -0.14800
C1616       C  0.60835104  0.59950392  0.62436803     0.07300
C1617       C  0.60022170  0.63151469  0.61929638    -0.14800
C1618       C  0.62376394  0.65510319  0.62113425    -0.14800
C1619       C  0.65605214  0.64732966  0.62824194     0.07300
C1620       C  0.66418765  0.61528261  0.63153919    -0.14800
H1621       H  0.64821845  0.56758500  0.63366724     0.11300
H1622       H  0.57552081  0.63843957  0.61575542     0.11300
H1623       H  0.61648700  0.67950210  0.61864559     0.11300
H1624       H  0.68867641  0.60821712  0.63684832     0.11300
C1625       C  0.64973604  0.52879447  0.75417276    -0.14800
C1626       C  0.62113066  0.51503504  0.76670521     0.07300
C1627       C  0.62119447  0.99220023  0.79906396    -0.14800
C1628       C  0.65006276  0.98151356  0.81652610    -0.14800
C1629       C  0.67890685  0.99346754  0.80120438     0.07300
C1630       C  0.67833926  0.51826542  0.77149750    -0.14800
H1631       H  0.65014127  0.54596287  0.72873924     0.11300
H1632       H  0.59918490  0.98091740  0.80839384     0.11300
H1633       H  0.64996169  0.96212345  0.83891831     0.11300
H1634       H  0.70031499  0.52771781  0.75898477     0.11300
C1635       C  0.90414975  0.53567089  0.70324625    -0.14800
C1636       C  0.93031345  0.51502558  0.70566387     0.07300
C1637       C  0.92523727  0.98438000  0.72159147    -0.14800
C1638       C  0.89603273  0.97551465  0.73864518    -0.14800
C1639       C  0.87053842  0.99664911  0.73876980     0.07300
C1640       C  0.87435010  0.52636862  0.71946227    -0.14800
H1641       H  0.90715427  0.55942204  0.69125086     0.11300
H1642       H  0.94453428  0.96750246  0.72309030     0.11300
H1643       H  0.89364376  0.95238880  0.75298606     0.11300
H1644       H  0.85489015  0.54314011  0.71939754     0.11300
C1645       C  0.49037735  0.62282702  0.78909305    -0.14800
C1646       C  0.50873807  0.62187536  0.75221539     0.07300
C1647       C  0.51784144  0.65021464  0.73279728    -0.14800
C1648       C  0.00677458  0.67862917  0.74749635    -0.14800
C1649       C  0.98647276  0.67969656  0.78231751     0.07300
C1650       C  0.97931278  0.65173061  0.80415780    -0.14800
H1651       H  0.48314110  0.60124838  0.80476620     0.11300
H1652       H  0.53238485  0.65042326  0.70482146     0.11300
H1653       H  0.01312277  0.69993119  0.73042745     0.11300
H1654       H  0.96381965  0.65207066  0.83118677     0.11300
C1655       C  0.52681164  0.90283055  0.68587803    -0.14800
C1656       C  0.51998044  0.93032508  0.70794768     0.07300
C1657       C  0.00010815  0.92862376  0.74328400    -0.14800
C1658       C  0.98900519  0.89991936  0.75804851    -0.14800
C1659       C  0.99783777  0.87198606  0.73841634     0.07300
C1660       C  0.51594156  0.87360157  0.70125684    -0.14800
H1661       H  0.54192828  0.90372956  0.65842913     0.11300
H1662       H  0.99399477  0.94951003  0.76053867     0.11300
H1663       H  0.97466533  0.89958083  0.78624352     0.11300
H1664       H  0.52293262  0.85237365  0.68539764     0.11300
loop_ 
_geom_bond_atom_site_label_1 
_geom_bond_atom_site_label_2 
_geom_bond_distance 
_geom_bond_site_symmetry_2 
_ccdc_geom_bond_type 
O1          Cr19   1.975       .  S
O1            C9   1.264       .  A
O2          Cr19   2.017       .  S
O2            C3   1.270       .  A
C3            O4   1.261       .  A
C3          C378   1.464       .  S
O4          Cr20   1.974       .  S
O5          Cr20   2.007       .  S
O5            C6   1.258       .  A
C6            O7   1.252       .  A
C6          C398   1.477       .  S
O7          Cr21   1.961       .  S
O8          Cr21   2.042       .  S
O8            C9   1.278       .  A
C9          C368   1.504       .  S
O10        Cr435   2.013       .  S
O10         C434   1.264       .  A
O11        Cr435   2.005       .  S
O11          C12   1.263       .  A
C12          O13   1.260       .  A
C12         C408   1.472       .  S
O13        Cr436   1.982       .  S
O14        Cr852   1.942       .  S
O14          C15   1.256       .  A
C15          O16   1.280       .  A
C15         C388   1.492       .  S
O16        Cr853   2.062       .  S
O17        Cr853   1.984       .  S
O17         C850   1.258       .  A
C18         O426   1.264       .  A
C18         O849   1.258       .  A
C18         C358   1.494       .  S
Cr19        O426   2.014       .  S
Cr19        O427   2.004   1_545  S
Cr19         O22   1.776       .  S
Cr20        O429   1.982   1_545  S
Cr20        O846   1.942   1_455  S
Cr20         O22   1.777       .  S
Cr21        O848   2.062   1_455  S
Cr21        O849   1.984       .  S
Cr21         O22   1.772       .  S
O23         Cr41   2.036       .  S
O23          C31   1.277       .  A
O24         Cr41   1.971       .  S
O24          C25   1.256       .  A
C25          O26   1.263       .  A
C25         C321   1.478       .  S
O26         Cr42   2.019       .  S
O27         Cr42   2.010       .  S
O27          C28   1.268       .  A
C28          O29   1.265       .  A
C28         C338   1.485       .  S
O29         Cr43   2.006       .  S
O30         Cr43   1.991       .  S
O30          C31   1.270       .  A
C31         C371   1.503       .  S
O32         Cr41   1.989       .  S
O32          C40   1.258       .  A
O33         Cr41   2.041       .  S
O33          C34   1.275       .  A
C34          O35   1.257       .  A
C34         C348   1.485       .  S
O35         Cr42   1.970       .  S
O36         Cr42   1.988       .  S
O36          C37   1.263       .  A
C37          O38   1.267       .  A
C37         C328   1.471       .  S
O38         Cr43   2.005       .  S
O39         Cr43   1.999       .  S
O39          C40   1.260       .  A
C40         C311   1.487       .  S
Cr41         O44   1.774       .  S
Cr42         O44   1.777       .  S
Cr43         O44   1.776       .  S
O45         Cr63   2.049       .  S
O45          C53   1.279       .  A
O46         Cr63   1.963       .  S
O46          C47   1.252       .  A
C47          O48   1.262       .  A
C47         C268   1.470       .  S
O48         Cr64   2.020       .  S
O49         Cr64   1.982       .  S
O49          C50   1.263       .  A
C50          O51   1.269       .  A
C50         C288   1.469       .  S
O51         Cr65   2.010       .  S
O52         Cr65   1.962       .  S
O52          C53   1.262       .  A
C53         C261   1.500       .  S
O54         Cr63   1.983       .  S
O54          C62   1.256       .  A
O55         Cr63   2.058       .  S
O55          C56   1.279       .  A
C56          O57   1.254       .  A
C56         C298   1.487       .  S
O57         Cr64   1.932       .  S
O58         Cr64   2.001       .  S
O58          C59   1.264       .  A
C59          O60   1.259       .  A
C59         C278   1.463       .  S
O60         Cr65   1.990       .  S
O61         Cr65   1.998       .  S
O61          C62   1.261       .  A
C62         C308   1.482       .  S
Cr63         O66   1.773       .  S
Cr64         O66   1.777       .  S
Cr65         O66   1.767       .  S
O67         Cr85   1.992       .  S
O67          C75   1.269       .  A
O68         Cr85   2.004       .  S
O68          C69   1.266       .  A
C69          O70   1.266       .  A
C69         C228   1.471       .  S
O70         Cr86   1.996       .  S
O71         Cr86   2.010       .  S
O71          C72   1.260       .  A
C72          O73   1.258       .  A
C72         C251   1.485       .  S
O73         Cr87   1.977       .  S
O74         Cr87   2.021       .  S
O74          C75   1.272       .  A
C75         C258   1.499       .  S
O76        Cr917   2.005       .  S
O76         C916   1.262       .  A
O77        Cr917   2.016   1_455  S
O77          C78   1.268       .  A
C78          O79   1.260       .  A
C78         C238   1.476       .  S
O79        Cr918   1.981   1_455  S
O80        Cr502   1.962   1_545  S
O80          C81   1.258       .  A
C81          O82   1.273       .  A
C81         C218   1.474       .  S
O82        Cr503   2.028   1_545  S
O83        Cr503   1.992       .  S
O83         C500   1.260       .  A
C84         O908   1.262       .  A
C84         O499   1.260       .  A
C84         C361   1.493       .  S
Cr85        O908   2.005       .  S
Cr85        O909   2.016       .  S
Cr85         O88   1.775       .  S
Cr86        O911   1.981       .  S
Cr86        O496   1.961       .  S
Cr86         O88   1.775       .  S
Cr87        O498   2.028       .  S
Cr87        O499   1.993       .  S
Cr87         O88   1.772       .  S
O89        Cr107   1.980       .  S
O89          C97   1.266       .  A
O90        Cr107   2.014       .  S
O90          C91   1.269       .  A
C91          O92   1.262       .  A
C91         C331   1.464       .  S
O92        Cr108   1.979       .  S
O93        Cr108   2.006       .  S
O93          C94   1.257       .  A
C94          O95   1.253       .  A
C94         C411   1.478       .  S
O95        Cr109   1.962       .  S
O96        Cr109   2.036       .  S
O96          C97   1.277       .  A
C97         C208   1.502       .  S
O98        Cr107   2.010       .  S
O98         C106   1.263       .  A
O99        Cr107   2.007       .  S
O99         C100   1.264       .  A
C100        O101   1.259       .  A
C100        C401   1.473       .  S
O101       Cr108   1.980       .  S
O102       Cr940   1.946   1_455  S
O102        C103   1.257       .  A
C103        O104   1.279       .  A
C103        C318   1.490       .  S
O104       Cr941   2.055   1_455  S
O105       Cr941   1.980   1_455  S
O105        C938   1.257   1_455  A
C106        O937   1.257       .  A
C106        C198   1.488       .  S
Cr107       O110   1.776       .  S
Cr108       O934   1.946       .  S
Cr108       O110   1.780       .  S
Cr109       O936   2.054       .  S
Cr109       O937   1.980       .  S
Cr109       O110   1.773       .  S
O111       Cr129   2.035       .  S
O111        C119   1.277       .  A
O112       Cr129   1.984       .  S
O112        C113   1.259       .  A
C113        O114   1.260       .  A
C113        C391   1.480       .  S
O114       Cr130   2.010       .  S
O115       Cr130   2.016       .  S
O115        C116   1.270       .  A
C116        O117   1.265       .  A
C116        C351   1.489       .  S
O117       Cr131   2.001       .  S
O118       Cr131   1.987       .  S
O118        C119   1.269       .  A
C119        C211   1.502       .  S
O120       Cr545   2.002   1_545  S
O120        C544   1.261   1_545  A
O121       Cr545   2.037   1_545  S
O121        C122   1.274       .  A
C122        O123   1.259       .  A
C122        C341   1.483       .  S
O123       Cr546   1.970   1_545  S
O124       Cr130   1.980       .  S
O124        C125   1.261       .  A
C125        O126   1.267       .  A
C125        C381   1.471       .  S
O126       Cr131   2.011       .  S
O127       Cr131   2.000       .  S
O127        C128   1.259       .  A
C128        O536   1.261       .  A
C128        C188   1.497       .  S
Cr129       O536   2.002       .  S
Cr129       O537   2.037       .  S
Cr129       O132   1.776       .  S
Cr130       O539   1.971       .  S
Cr130       O132   1.778       .  S
Cr131       O132   1.779       .  S
O133       Cr151   2.002       .  S
O133        C141   1.271       .  A
O134       Cr151   2.002   1_655  S
O134        C135   1.265   1_655  A
C135        O136   1.267       .  A
C135        C221   1.473   1_455  S
O136       Cr152   2.000       .  S
O137       Cr152   2.007       .  S
O137        C138   1.259       .  A
C138        O139   1.257       .  A
C138        C301   1.472       .  S
O139       Cr153   1.977       .  S
O140       Cr153   2.016       .  S
O140        C141   1.273       .  A
C141        C178   1.499       .  S
O142       Cr983   2.000       .  S
O142        C982   1.261       .  A
O143       Cr983   2.023       .  S
O143        C144   1.269       .  A
C144        O145   1.260       .  A
C144        C291   1.479       .  S
O145       Cr984   1.979       .  S
O146       Cr152   1.963       .  S
O146        C147   1.258       .  A
C147        O148   1.272       .  A
C147        C231   1.474       .  S
O148       Cr153   2.025       .  S
O149       Cr153   1.995       .  S
O149        C150   1.260       .  A
C150        O974   1.261       .  A
C150        C201   1.492       .  S
Cr151       O974   2.000       .  S
Cr151       O975   2.022   1_455  S
Cr151       O154   1.774       .  S
Cr152       O977   1.979   1_455  S
Cr152       O154   1.775       .  S
Cr153       O154   1.771       .  S
O155       Cr173   2.003       .  S
O155        C163   1.270       .  A
O156       Cr173   1.989       .  S
O156        C157   1.264       .  A
C157        O158   1.265       .  A
C157        C281   1.475       .  S
O158       Cr174   2.001       .  S
O159       Cr174   2.002       .  S
O159        C160   1.259       .  A
C160        O161   1.259       .  A
C160        C241   1.481       .  S
O161       Cr175   1.978       .  S
O162       Cr175   2.016       .  S
O162        C163   1.272       .  A
C163        C181   1.499       .  S
O164       Cr173   2.001       .  S
O164        C172   1.260       .  A
O165       Cr173   2.025       .  S
O165        C166   1.271       .  A
C166        O167   1.260       .  A
C166        C248   1.481       .  S
O167       Cr174   1.981       .  S
O168       Cr590   1.965       .  S
O168        C169   1.260       .  A
C169        O170   1.269       .  A
C169        C271   1.481       .  S
O170       Cr591   2.022       .  S
O171       Cr591   1.999       .  S
O171        C588   1.261       .  A
C172        O587   1.261   1_545  A
C172        C191   1.496       .  S
Cr173       O176   1.775       .  S
Cr174       O584   1.965   1_545  S
Cr174       O176   1.779       .  S
Cr175       O586   2.022   1_545  S
Cr175       O587   1.999   1_545  S
Cr175       O176   1.774       .  S
C177        C178   1.411       .  A
C177        C182   1.407       .  A
C177        H183   1.083       .  S
C178        C179   1.406       .  A
C179        C180   1.407       .  A
C179        H184   1.083       .  S
C180        C181   1.411       .  A
C180        H185   1.083       .  S
C181        C182   1.407       .  A
C182        H186   1.083       .  S
C187        C192   1.404   1_556  A
C187        C604   1.406   1_545  A
C187        H193   1.083       .  S
C188        C189   1.411       .  A
C188        C603   1.406       .  A
C189        C190   1.405   1_556  A
C189        H194   1.082       .  S
C190        C607   1.406       .  A
C190        H195   1.083       .  S
C191        C192   1.410       .  A
C191        C606   1.406   1_545  A
C192        H196   1.082       .  S
C197        C198   1.404       .  A
C197        C202   1.402   1_556  A
C197        H203   1.083       .  S
C198       C1031   1.408       .  A
C199        C200   1.405   1_556  A
C199       C1030   1.408   1_455  A
C199        H204   1.083       .  S
C200        C201   1.407       .  A
C200        H205   1.083       .  S
C201       C1034   1.409   1_455  A
C202       C1033   1.409       .  A
C202        H206   1.083       .  S
C207        C208   1.410       .  A
C207        C212   1.411       .  A
C207        H213   1.083       .  S
C208        C209   1.409       .  A
C209        C210   1.403       .  A
C209        H214   1.083       .  S
C210        C211   1.408       .  A
C210        H215   1.083       .  S
C211        C212   1.411       .  A
C212        H216   1.083       .  S
C217        C218   1.400       .  A
C217        C222   1.397       .  A
C217        H223   1.084       .  S
C218       C1051   1.409       .  A
C219        C220   1.401       .  A
C219       C1050   1.409   1_455  A
C219        H224   1.083       .  S
C220        C221   1.400   1_455  A
C220        H225   1.083       .  S
C221       C1054   1.408       .  A
C222       C1053   1.408       .  A
C222        H226   1.084       .  S
C227        C228   1.400       .  A
C227       C1064   1.401       .  A
C227        H233   1.083       .  S
C228        C229   1.407       .  A
C229       C1062   1.397       .  A
C229        H234   1.084       .  S
C230        C231   1.400       .  A
C230       C1061   1.397       .  A
C230        H235   1.084       .  S
C231        C232   1.409   1_455  A
C232       C1059   1.401       .  A
C232        H236   1.083       .  S
C237        C242   1.389       .  A
C237        C654   1.406   1_545  A
C237        H243   1.083       .  S
C238        C239   1.403       .  A
C238        C653   1.406       .  A
C239        C240   1.408       .  A
C239        H244   1.083       .  S
C240        C657   1.412       .  A
C240        H245   1.083       .  S
C241        C242   1.400       .  A
C241        C656   1.412   1_545  A
C242        H246   1.084       .  S
C247        C252   1.389       .  A
C247        C664   1.406       .  A
C247        H253   1.082       .  S
C248        C249   1.404       .  A
C248        C663   1.406   1_545  A
C249        C250   1.411       .  A
C249        H254   1.083       .  S
C250        C667   1.413   1_545  A
C250        H255   1.082       .  S
C251        C252   1.400       .  A
C251        C666   1.413       .  A
C252        H256   1.084       .  S
C257        C258   1.413       .  A
C257        C262   1.412       .  A
C257        H263   1.082       .  S
C258        C259   1.405       .  A
C259        C260   1.399       .  A
C259        H264   1.083       .  S
C260        C261   1.411       .  A
C260        H265   1.083       .  S
C261        C262   1.408       .  A
C262        H266   1.083       .  S
C267        C268   1.399       .  A
C267        C272   1.393       .  A
C267        H273   1.084       .  S
C268        C269   1.406       .  A
C269        C270   1.405       .  A
C269        H274   1.083       .  S
C270        C271   1.406       .  A
C270        H275   1.083       .  S
C271        C272   1.406       .  A
C272        H276   1.080       .  S
C277        C278   1.395       .  A
C277        C282   1.388       .  A
C277        H283   1.084       .  S
C278        C279   1.407       .  A
C279        C280   1.407       .  A
C279        H284   1.083       .  S
C280        C281   1.404       .  A
C280        H285   1.083       .  S
C281        C282   1.407       .  A
C282        H286   1.084       .  S
C287        C288   1.396       .  A
C287        C292   1.389       .  A
C287        H293   1.084       .  S
C288        C289   1.409       .  A
C289        C290   1.410       .  A
C289        H294   1.083       .  S
C290        C291   1.404       .  A
C290        H295   1.082       .  S
C291        C292   1.408       .  A
C292        H296   1.083       .  S
C297        C298   1.404       .  A
C297        C302   1.408       .  A
C297        H303   1.083       .  S
C298        C299   1.413       .  A
C299        C300   1.391       .  A
C299        H304   1.083       .  S
C300        C301   1.395       .  A
C300        H305   1.084       .  S
C301        C302   1.409       .  A
C302        H306   1.083       .  S
C307        C308   1.404       .  A
C307        C312   1.398       .  A
C307        H313   1.083       .  S
C308        C309   1.406       .  A
C309        C310   1.404       .  A
C309        H314   1.083       .  S
C310        C311   1.407       .  A
C310        H315   1.082       .  S
C311        C312   1.407       .  A
C312        H316   1.083       .  S
C317        C318   1.406       .  A
C317        C322   1.410       .  A
C317        H323   1.083       .  S
C318        C319   1.411       .  A
C319        C320   1.393       .  A
C319        H324   1.082       .  S
C320        C321   1.398       .  A
C320        H325   1.084       .  S
C321        C322   1.409       .  A
C322        H326   1.083       .  S
C327        C328   1.406       .  A
C327        C332   1.393       .  A
C327        H333   1.081       .  S
C328        C329   1.401       .  A
C329        C330   1.403       .  A
C329        H334   1.083       .  S
C330        C331   1.407       .  A
C330        H335   1.083       .  S
C331        C332   1.396       .  A
C332        H336   1.084       .  S
C337        C338   1.402       .  A
C337        C342   1.406       .  A
C337        H343   1.083       .  S
C338        C339   1.410       .  A
C339        C340   1.402       .  A
C339        H344   1.083       .  S
C340        C341   1.401       .  A
C340        H345   1.084       .  S
C341        C342   1.410       .  A
C342        H346   1.083       .  S
C347        C348   1.399       .  A
C347        C352   1.400       .  A
C347        H353   1.084       .  S
C348        C349   1.412       .  A
C349        C350   1.409       .  A
C349        H354   1.082       .  S
C350        C351   1.403       .  A
C350        H355   1.083       .  S
C351        C352   1.411       .  A
C352        H356   1.083       .  S
C357        C362   1.405       .  A
C357       C1606   1.407       .  A
C357        H363   1.083       .  S
C358        C359   1.409   1_455  A
C358       C1605   1.407   1_545  A
C359        C360   1.405       .  A
C359        H364   1.082       .  S
C360       C1609   1.407   1_545  A
C360        H365   1.083       .  S
C361        C362   1.409       .  A
C361       C1608   1.407       .  A
C362        H366   1.083       .  S
C367        C368   1.410       .  A
C367        C372   1.403       .  A
C367        H373   1.083       .  S
C368        C369   1.410       .  A
C369        C370   1.413       .  A
C369        H374   1.083       .  S
C370        C371   1.412       .  A
C370        H375   1.083       .  S
C371        C372   1.407       .  A
C372        H376   1.083       .  S
C377        C378   1.395       .  A
C377        C382   1.391       .  A
C377        H383   1.084       .  S
C378        C795   1.408   1_545  A
C379        C380   1.405       .  A
C379        C794   1.408       .  A
C379        H384   1.083       .  S
C380        C381   1.402       .  A
C380        H385   1.083       .  S
C381        C798   1.407       .  A
C382        C797   1.407   1_545  A
C382        H386   1.083       .  S
C387        C388   1.406       .  A
C387        C392   1.411       .  A
C387        H393   1.083       .  S
C388        C805   1.412   1_545  A
C389        C390   1.394       .  A
C389        C804   1.412       .  A
C389        H394   1.082       .  S
C390        C391   1.396       .  A
C390        H395   1.084       .  S
C391        C808   1.411       .  A
C392        C807   1.411   1_545  A
C392        H396   1.083       .  S
C397        C398   1.410   1_655  A
C397       C1234   1.406       .  A
C397        H403   1.083       .  S
C398        C399   1.402       .  A
C399       C1232   1.385       .  A
C399        H404   1.083       .  S
C400        C401   1.404       .  A
C400       C1231   1.385       .  A
C400        H405   1.084       .  S
C401        C402   1.403       .  A
C402       C1229   1.407       .  A
C402        H406   1.082       .  S
C407        C408   1.404       .  A
C407        C412   1.407       .  A
C407        H413   1.083       .  S
C408       C1241   1.403       .  A
C409        C410   1.385       .  A
C409       C1240   1.403       .  A
C409        H414   1.083       .  S
C410        C411   1.401       .  A
C410        H415   1.084       .  S
C411       C1244   1.411       .  A
C412       C1243   1.411   1_455  A
C412        H416   1.082       .  S
O417       Cr435   1.975       .  S
O417        C425   1.264       .  A
O418       Cr435   2.016       .  S
O418        C419   1.270       .  A
C419        O420   1.261       .  A
C419        C794   1.464       .  S
O420       Cr436   1.974       .  S
O421       Cr436   2.007       .  S
O421        C422   1.258       .  A
C422        O423   1.252       .  A
C422        C814   1.477       .  S
O423       Cr437   1.961       .  S
O424       Cr437   2.043       .  S
O424        C425   1.278       .  A
C425        C784   1.504       .  S
O427        C428   1.263       .  A
C428        O429   1.260       .  A
C428        C824   1.472       .  S
O430      Cr1268   1.942       .  S
O430        C431   1.256       .  A
C431        O432   1.280       .  A
C431        C804   1.492       .  S
O432      Cr1269   2.062       .  S
O433      Cr1269   1.984       .  S
O433       C1266   1.258       .  A
C434       O1265   1.258       .  A
C434        C774   1.494       .  S
Cr435       O438   1.776       .  S
Cr436      O1262   1.942   1_455  S
Cr436       O438   1.777       .  S
Cr437      O1264   2.062   1_455  S
Cr437      O1265   1.984       .  S
Cr437       O438   1.772       .  S
O439       Cr457   2.036       .  S
O439        C447   1.277       .  A
O440       Cr457   1.971       .  S
O440        C441   1.256       .  A
C441        O442   1.262       .  A
C441        C737   1.478       .  S
O442       Cr458   2.018       .  S
O443       Cr458   2.010       .  S
O443        C444   1.268       .  A
C444        O445   1.265       .  A
C444        C754   1.485       .  S
O445       Cr459   2.006       .  S
O446       Cr459   1.991       .  S
O446        C447   1.270       .  A
C447        C787   1.504       .  S
O448       Cr457   1.989       .  S
O448        C456   1.258       .  A
O449       Cr457   2.042       .  S
O449        C450   1.275       .  A
C450        O451   1.257       .  A
C450        C764   1.485       .  S
O451       Cr458   1.970       .  S
O452       Cr458   1.988       .  S
O452        C453   1.263       .  A
C453        O454   1.267       .  A
C453        C744   1.471       .  S
O454       Cr459   2.005       .  S
O455       Cr459   1.999       .  S
O455        C456   1.260       .  A
C456        C727   1.486       .  S
Cr457       O460   1.774       .  S
Cr458       O460   1.777       .  S
Cr459       O460   1.776       .  S
O461       Cr479   2.049       .  S
O461        C469   1.279       .  A
O462       Cr479   1.963       .  S
O462        C463   1.252       .  A
C463        O464   1.262       .  A
C463        C684   1.470       .  S
O464       Cr480   2.021       .  S
O465       Cr480   1.982       .  S
O465        C466   1.263       .  A
C466        O467   1.269       .  A
C466        C704   1.469       .  S
O467       Cr481   2.009       .  S
O468       Cr481   1.963       .  S
O468        C469   1.262       .  A
C469        C677   1.500       .  S
O470       Cr479   1.983       .  S
O470        C478   1.256       .  A
O471       Cr479   2.058       .  S
O471        C472   1.279       .  A
C472        O473   1.254       .  A
C472        C714   1.487       .  S
O473       Cr480   1.932       .  S
O474       Cr480   2.001       .  S
O474        C475   1.264       .  A
C475        O476   1.259       .  A
C475        C694   1.463       .  S
O476       Cr481   1.990       .  S
O477       Cr481   1.998       .  S
O477        C478   1.261       .  A
C478        C724   1.482       .  S
Cr479       O482   1.773       .  S
Cr480       O482   1.777       .  S
Cr481       O482   1.767       .  S
O483       Cr501   1.992       .  S
O483        C491   1.269       .  A
O484       Cr501   2.004       .  S
O484        C485   1.266       .  A
C485        O486   1.266       .  A
C485        C644   1.471       .  S
O486       Cr502   1.996       .  S
O487       Cr502   2.010       .  S
O487        C488   1.260       .  A
C488        O489   1.258       .  A
C488        C667   1.485       .  S
O489       Cr503   1.977       .  S
O490       Cr503   2.021       .  S
O490        C491   1.272       .  A
C491        C674   1.499       .  S
O492      Cr1333   2.005       .  S
O492       C1332   1.262       .  A
O493      Cr1333   2.016   1_455  S
O493        C494   1.268       .  A
C494        O495   1.260       .  A
C494        C654   1.476       .  S
O495      Cr1334   1.981   1_455  S
O496        C497   1.258       .  A
C497        O498   1.273       .  A
C497        C634   1.474       .  S
C500       O1324   1.262       .  A
C500        C777   1.493       .  S
Cr501      O1324   2.005       .  S
Cr501      O1325   2.016       .  S
Cr501       O504   1.775       .  S
Cr502      O1327   1.981       .  S
Cr502       O504   1.775       .  S
Cr503       O504   1.772       .  S
O505       Cr523   1.980       .  S
O505        C513   1.266       .  A
O506       Cr523   2.015       .  S
O506        C507   1.269       .  A
C507        O508   1.262       .  A
C507        C747   1.464       .  S
O508       Cr524   1.979       .  S
O509       Cr524   2.006       .  S
O509        C510   1.257       .  A
C510        O511   1.253       .  A
C510        C827   1.478       .  S
O511       Cr525   1.962       .  S
O512       Cr525   2.037       .  S
O512        C513   1.277       .  A
C513        C624   1.502       .  S
O514       Cr523   2.010       .  S
O514        C522   1.263       .  A
O515       Cr523   2.007       .  S
O515        C516   1.264       .  A
C516        O517   1.259       .  A
C516        C817   1.472       .  S
O517       Cr524   1.980       .  S
O518      Cr1356   1.946   1_455  S
O518        C519   1.257       .  A
C519        O520   1.279       .  A
C519        C734   1.490       .  S
O520      Cr1357   2.054   1_455  S
O521      Cr1357   1.980   1_455  S
O521       C1354   1.257   1_455  A
C522       O1353   1.257       .  A
C522        C614   1.488       .  S
Cr523       O526   1.776       .  S
Cr524      O1350   1.946       .  S
Cr524       O526   1.780       .  S
Cr525      O1352   2.055       .  S
Cr525      O1353   1.980       .  S
Cr525       O526   1.772       .  S
O527       Cr545   2.035       .  S
O527        C535   1.277       .  A
O528       Cr545   1.985       .  S
O528        C529   1.259       .  A
C529        O530   1.260       .  A
C529        C807   1.481       .  S
O530       Cr546   2.010       .  S
O531       Cr546   2.016       .  S
O531        C532   1.271       .  A
C532        O533   1.265       .  A
C532        C767   1.489       .  S
O533       Cr547   2.002       .  S
O534       Cr547   1.988       .  S
O534        C535   1.269       .  A
C535        C627   1.503       .  S
O537        C538   1.274       .  A
C538        O539   1.259       .  A
C538        C757   1.483       .  S
O540       Cr546   1.980       .  S
O540        C541   1.261       .  A
C541        O542   1.267       .  A
C541        C797   1.472       .  S
O542       Cr547   2.011       .  S
O543       Cr547   2.000       .  S
O543        C544   1.259       .  A
C544        C604   1.497       .  S
Cr545       O548   1.776       .  S
Cr546       O548   1.778       .  S
Cr547       O548   1.779       .  S
O549       Cr567   2.002       .  S
O549        C557   1.271       .  A
O550       Cr567   2.002   1_655  S
O550        C551   1.265   1_655  A
C551        O552   1.267       .  A
C551        C637   1.473   1_455  S
O552       Cr568   2.000       .  S
O553       Cr568   2.007       .  S
O553        C554   1.259       .  A
C554        O555   1.257       .  A
C554        C717   1.472       .  S
O555       Cr569   1.977       .  S
O556       Cr569   2.016       .  S
O556        C557   1.273       .  A
C557        C594   1.499       .  S
O558      Cr1399   2.000       .  S
O558       C1398   1.261       .  A
O559      Cr1399   2.022       .  S
O559        C560   1.269       .  A
C560        O561   1.260       .  A
C560        C707   1.479       .  S
O561      Cr1400   1.980       .  S
O562       Cr568   1.963       .  S
O562        C563   1.258       .  A
C563        O564   1.272       .  A
C563        C647   1.474       .  S
O564       Cr569   2.025       .  S
O565       Cr569   1.995       .  S
O565        C566   1.260       .  A
C566       O1390   1.261       .  A
C566        C617   1.492       .  S
Cr567      O1390   2.000       .  S
Cr567      O1391   2.023   1_455  S
Cr567       O570   1.774       .  S
Cr568      O1393   1.979   1_455  S
Cr568       O570   1.775       .  S
Cr569       O570   1.771       .  S
O571       Cr589   2.003       .  S
O571        C579   1.271       .  A
O572       Cr589   1.990       .  S
O572        C573   1.264       .  A
C573        O574   1.265       .  A
C573        C697   1.475       .  S
O574       Cr590   2.000       .  S
O575       Cr590   2.002       .  S
O575        C576   1.259       .  A
C576        O577   1.259       .  A
C576        C657   1.481       .  S
O577       Cr591   1.978       .  S
O578       Cr591   2.016       .  S
O578        C579   1.272       .  A
C579        C597   1.499       .  S
O580       Cr589   2.001       .  S
O580        C588   1.260       .  A
O581       Cr589   2.026       .  S
O581        C582   1.271       .  A
C582        O583   1.260       .  A
C582        C664   1.481       .  S
O583       Cr590   1.981       .  S
O584        C585   1.260       .  A
C585        O586   1.269       .  A
C585        C687   1.481       .  S
C588        C607   1.496       .  S
Cr589       O592   1.775       .  S
Cr590       O592   1.779       .  S
Cr591       O592   1.774       .  S
C593        C594   1.411       .  A
C593        C598   1.407       .  A
C593        H599   1.083       .  S
C594        C595   1.406       .  A
C595        C596   1.407       .  A
C595        H600   1.083       .  S
C596        C597   1.411       .  A
C596        H601   1.083       .  S
C597        C598   1.407       .  A
C598        H602   1.083       .  S
C603        C608   1.404   1_556  A
C603        H609   1.083       .  S
C604        C605   1.411       .  A
C605        C606   1.405   1_556  A
C605        H610   1.082       .  S
C606        H611   1.083       .  S
C607        C608   1.410       .  A
C608        H612   1.082       .  S
C613        C614   1.404       .  A
C613        C618   1.402   1_556  A
C613        H619   1.083       .  S
C614       C1447   1.408       .  A
C615       C1446   1.408   1_455  A
C615        C616   1.405   1_556  A
C615        H620   1.083       .  S
C616        C617   1.407       .  A
C616        H621   1.083       .  S
C617       C1450   1.409   1_455  A
C618       C1449   1.409       .  A
C618        H622   1.083       .  S
C623        C624   1.410       .  A
C623        C628   1.411       .  A
C623        H629   1.083       .  S
C624        C625   1.409       .  A
C625        C626   1.403       .  A
C625        H630   1.083       .  S
C626        C627   1.408       .  A
C626        H631   1.083       .  S
C627        C628   1.411       .  A
C628        H632   1.083       .  S
C633        C634   1.400       .  A
C633        C638   1.397       .  A
C633        H639   1.084       .  S
C634       C1467   1.409       .  A
C635       C1466   1.409   1_455  A
C635        C636   1.401       .  A
C635        H640   1.083       .  S
C636        C637   1.400   1_455  A
C636        H641   1.083       .  S
C637       C1470   1.408       .  A
C638       C1469   1.408       .  A
C638        H642   1.084       .  S
C643        C644   1.400       .  A
C643       C1480   1.401       .  A
C643        H649   1.083       .  S
C644        C645   1.407       .  A
C645       C1478   1.397       .  A
C645        H650   1.084       .  S
C646       C1477   1.397       .  A
C646        C647   1.400       .  A
C646        H651   1.084       .  S
C647        C648   1.409   1_455  A
C648       C1475   1.401       .  A
C648        H652   1.083       .  S
C653        C658   1.389       .  A
C653        H659   1.083       .  S
C654        C655   1.403       .  A
C655        C656   1.408       .  A
C655        H660   1.083       .  S
C656        H661   1.083       .  S
C657        C658   1.400       .  A
C658        H662   1.084       .  S
C663        C668   1.389       .  A
C663        H669   1.082       .  S
C664        C665   1.404       .  A
C665        C666   1.411       .  A
C665        H670   1.083       .  S
C666        H671   1.082       .  S
C667        C668   1.400       .  A
C668        H672   1.084       .  S
C673        C674   1.413       .  A
C673        C678   1.412       .  A
C673        H679   1.082       .  S
C674        C675   1.405       .  A
C675        C676   1.399       .  A
C675        H680   1.083       .  S
C676        C677   1.411       .  A
C676        H681   1.083       .  S
C677        C678   1.408       .  A
C678        H682   1.083       .  S
C683        C684   1.399       .  A
C683        C688   1.393       .  A
C683        H689   1.084       .  S
C684        C685   1.406       .  A
C685        C686   1.405       .  A
C685        H690   1.083       .  S
C686        C687   1.406       .  A
C686        H691   1.083       .  S
C687        C688   1.406       .  A
C688        H692   1.080       .  S
C693        C694   1.395       .  A
C693        C698   1.388       .  A
C693        H699   1.084       .  S
C694        C695   1.407       .  A
C695        C696   1.407       .  A
C695        H700   1.083       .  S
C696        C697   1.404       .  A
C696        H701   1.083       .  S
C697        C698   1.406       .  A
C698        H702   1.084       .  S
C703        C704   1.396       .  A
C703        C708   1.389       .  A
C703        H709   1.084       .  S
C704        C705   1.409       .  A
C705        C706   1.410       .  A
C705        H710   1.083       .  S
C706        C707   1.404       .  A
C706        H711   1.082       .  S
C707        C708   1.408       .  A
C708        H712   1.083       .  S
C713        C714   1.404       .  A
C713        C718   1.408       .  A
C713        H719   1.083       .  S
C714        C715   1.413       .  A
C715        C716   1.391       .  A
C715        H720   1.083       .  S
C716        C717   1.395       .  A
C716        H721   1.084       .  S
C717        C718   1.409       .  A
C718        H722   1.083       .  S
C723        C724   1.404       .  A
C723        C728   1.398       .  A
C723        H729   1.083       .  S
C724        C725   1.406       .  A
C725        C726   1.404       .  A
C725        H730   1.083       .  S
C726        C727   1.407       .  A
C726        H731   1.082       .  S
C727        C728   1.407       .  A
C728        H732   1.083       .  S
C733        C734   1.406       .  A
C733        C738   1.410       .  A
C733        H739   1.083       .  S
C734        C735   1.410       .  A
C735        C736   1.393       .  A
C735        H740   1.082       .  S
C736        C737   1.398       .  A
C736        H741   1.084       .  S
C737        C738   1.409       .  A
C738        H742   1.083       .  S
C743        C744   1.406       .  A
C743        C748   1.394       .  A
C743        H749   1.081       .  S
C744        C745   1.401       .  A
C745        C746   1.403       .  A
C745        H750   1.083       .  S
C746        C747   1.407       .  A
C746        H751   1.083       .  S
C747        C748   1.396       .  A
C748        H752   1.084       .  S
C753        C754   1.402       .  A
C753        C758   1.406       .  A
C753        H759   1.083       .  S
C754        C755   1.410       .  A
C755        C756   1.402       .  A
C755        H760   1.083       .  S
C756        C757   1.401       .  A
C756        H761   1.084       .  S
C757        C758   1.410       .  A
C758        H762   1.083       .  S
C763        C764   1.399       .  A
C763        C768   1.400       .  A
C763        H769   1.084       .  S
C764        C765   1.412       .  A
C765        C766   1.409       .  A
C765        H770   1.082       .  S
C766        C767   1.403       .  A
C766        H771   1.083       .  S
C767        C768   1.411       .  A
C768        H772   1.083       .  S
C773       C1190   1.407   1_565  A
C773        C778   1.404       .  A
C773        H779   1.083       .  S
C774       C1189   1.407       .  A
C774        C775   1.409   1_455  A
C775        C776   1.405       .  A
C775        H780   1.082       .  S
C776       C1193   1.407       .  A
C776        H781   1.083       .  S
C777       C1192   1.407   1_565  A
C777        C778   1.408       .  A
C778        H782   1.083       .  S
C783        C784   1.410       .  A
C783        C788   1.403       .  A
C783        H789   1.083       .  S
C784        C785   1.410       .  A
C785        C786   1.413       .  A
C785        H790   1.083       .  S
C786        C787   1.412       .  A
C786        H791   1.083       .  S
C787        C788   1.407       .  A
C788        H792   1.083       .  S
C793        C794   1.395       .  A
C793        C798   1.391       .  A
C793        H799   1.084       .  S
C795        C796   1.405       .  A
C795        H800   1.083       .  S
C796        C797   1.402       .  A
C796        H801   1.083       .  S
C798        H802   1.083       .  S
C803        C804   1.406       .  A
C803        C808   1.411       .  A
C803        H809   1.083       .  S
C805        C806   1.394       .  A
C805        H810   1.082       .  S
C806        C807   1.396       .  A
C806        H811   1.084       .  S
C808        H812   1.083       .  S
C813        C814   1.410   1_655  A
C813       C1650   1.407       .  A
C813        H819   1.083       .  S
C814        C815   1.402       .  A
C815       C1648   1.386       .  A
C815        H820   1.083       .  S
C816       C1647   1.385       .  A
C816        C817   1.404       .  A
C816        H821   1.084       .  S
C817        C818   1.403       .  A
C818       C1645   1.407       .  A
C818        H822   1.082       .  S
C823        C824   1.404       .  A
C823        C828   1.407       .  A
C823        H829   1.083       .  S
C824       C1657   1.403       .  A
C825       C1656   1.403       .  A
C825        C826   1.385       .  A
C825        H830   1.083       .  S
C826        C827   1.401       .  A
C826        H831   1.084       .  S
C827       C1660   1.411       .  A
C828       C1659   1.411   1_455  A
C828        H832   1.082       .  S
O833       Cr851   1.975       .  S
O833        C841   1.264       .  A
O834       Cr851   2.017       .  S
O834        C835   1.270       .  A
C835        O836   1.261       .  A
C835       C1210   1.464       .  S
O836       Cr852   1.974       .  S
O837       Cr852   2.008       .  S
O837        C838   1.258       .  A
C838        O839   1.252       .  A
C838       C1230   1.477       .  S
O839       Cr853   1.961       .  S
O840       Cr853   2.043       .  S
O840        C841   1.278       .  A
C841       C1200   1.504       .  S
O842      Cr1267   2.014       .  S
O842       C1266   1.265       .  A
O843      Cr1267   2.004       .  S
O843        C844   1.263       .  A
C844        O845   1.260       .  A
C844       C1240   1.472       .  S
O845      Cr1268   1.982       .  S
O846        C847   1.256       .  A
C847        O848   1.280       .  A
C847       C1220   1.492       .  S
C850       O1258   1.264       .  A
C850       C1190   1.494       .  S
Cr851      O1258   2.014       .  S
Cr851      O1259   2.005   1_545  S
Cr851       O854   1.776       .  S
Cr852      O1261   1.982   1_545  S
Cr852       O854   1.777       .  S
Cr853       O854   1.772       .  S
O855       Cr873   2.036       .  S
O855        C863   1.277       .  A
O856       Cr873   1.971       .  S
O856        C857   1.256       .  A
C857        O858   1.262       .  A
C857       C1153   1.478       .  S
O858       Cr874   2.018       .  S
O859       Cr874   2.010       .  S
O859        C860   1.268       .  A
C860        O861   1.264       .  A
C860       C1170   1.485       .  S
O861       Cr875   2.006       .  S
O862       Cr875   1.991       .  S
O862        C863   1.270       .  A
C863       C1203   1.504       .  S
O864       Cr873   1.989       .  S
O864        C872   1.258       .  A
O865       Cr873   2.042       .  S
O865        C866   1.275       .  A
C866        O867   1.257       .  A
C866       C1180   1.485       .  S
O867       Cr874   1.970       .  S
O868       Cr874   1.988       .  S
O868        C869   1.263       .  A
C869        O870   1.267       .  A
C869       C1160   1.470       .  S
O870       Cr875   2.005       .  S
O871       Cr875   1.999       .  S
O871        C872   1.260       .  A
C872       C1143   1.486       .  S
Cr873       O876   1.774       .  S
Cr874       O876   1.777       .  S
Cr875       O876   1.776       .  S
O877       Cr895   2.049       .  S
O877        C885   1.279       .  A
O878       Cr895   1.963       .  S
O878        C879   1.252       .  A
C879        O880   1.262       .  A
C879       C1100   1.470       .  S
O880       Cr896   2.021       .  S
O881       Cr896   1.982       .  S
O881        C882   1.263       .  A
C882        O883   1.269       .  A
C882       C1120   1.469       .  S
O883       Cr897   2.009       .  S
O884       Cr897   1.962       .  S
O884        C885   1.262       .  A
C885       C1093   1.500       .  S
O886       Cr895   1.983       .  S
O886        C894   1.256       .  A
O887       Cr895   2.058       .  S
O887        C888   1.279       .  A
C888        O889   1.254       .  A
C888       C1130   1.487       .  S
O889       Cr896   1.932       .  S
O890       Cr896   2.001       .  S
O890        C891   1.265       .  A
C891        O892   1.259       .  A
C891       C1110   1.463       .  S
O892       Cr897   1.990       .  S
O893       Cr897   1.999       .  S
O893        C894   1.261       .  A
C894       C1140   1.482       .  S
Cr895       O898   1.773       .  S
Cr896       O898   1.777       .  S
Cr897       O898   1.767       .  S
O899       Cr917   1.992       .  S
O899        C907   1.269       .  A
O900       Cr917   2.004   1_455  S
O900        C901   1.266   1_455  A
C901        O902   1.266       .  A
C901       C1060   1.471       .  S
O902       Cr918   1.996       .  S
O903       Cr918   2.010       .  S
O903        C904   1.260       .  A
C904        O905   1.258       .  A
C904       C1083   1.485       .  S
O905       Cr919   1.977       .  S
O906       Cr919   2.021       .  S
O906        C907   1.272       .  A
C907       C1090   1.499       .  S
O909        C910   1.267       .  A
C910        O911   1.260       .  A
C910       C1070   1.476       .  S
O912      Cr1334   1.961   1_545  S
O912        C913   1.258       .  A
C913        O914   1.273       .  A
C913       C1050   1.474       .  S
O914      Cr1335   2.028   1_545  S
O915      Cr1335   1.993       .  S
O915       C1332   1.260       .  A
C916       O1331   1.260       .  A
C916       C1193   1.493       .  S
Cr917       O920   1.775       .  S
Cr918      O1328   1.962       .  S
Cr918       O920   1.775       .  S
Cr919      O1330   2.028       .  S
Cr919      O1331   1.992       .  S
Cr919       O920   1.772       .  S
O921       Cr939   1.980       .  S
O921        C929   1.266       .  A
O922       Cr939   2.015       .  S
O922        C923   1.269       .  A
C923        O924   1.262       .  A
C923       C1163   1.465       .  S
O924       Cr940   1.979       .  S
O925       Cr940   2.005       .  S
O925        C926   1.257       .  A
C926        O927   1.253       .  A
C926       C1243   1.478       .  S
O927       Cr941   1.963       .  S
O928       Cr941   2.037       .  S
O928        C929   1.277       .  A
C929       C1040   1.502       .  S
O930       Cr939   2.010       .  S
O930        C938   1.263       .  A
O931       Cr939   2.006       .  S
O931        C932   1.264       .  A
C932        O933   1.259       .  A
C932       C1233   1.472       .  S
O933       Cr940   1.980       .  S
O934        C935   1.257       .  A
C935        O936   1.279       .  A
C935       C1150   1.490       .  S
C938       C1030   1.489       .  S
Cr939       O942   1.776       .  S
Cr940       O942   1.780       .  S
Cr941       O942   1.773       .  S
O943       Cr961   2.035       .  S
O943        C951   1.277       .  A
O944       Cr961   1.985       .  S
O944        C945   1.259       .  A
C945        O946   1.260       .  A
C945       C1223   1.481       .  S
O946       Cr962   2.010       .  S
O947       Cr962   2.016       .  S
O947        C948   1.271       .  A
C948        O949   1.265       .  A
C948       C1183   1.489       .  S
O949       Cr963   2.001       .  S
O950       Cr963   1.988       .  S
O950        C951   1.269       .  A
C951       C1043   1.502       .  S
O952      Cr1377   2.002   1_545  S
O952       C1376   1.261   1_545  A
O953      Cr1377   2.037   1_545  S
O953        C954   1.274       .  A
C954        O955   1.259       .  A
C954       C1173   1.483       .  S
O955      Cr1378   1.971   1_545  S
O956       Cr962   1.980       .  S
O956        C957   1.261       .  A
C957        O958   1.267       .  A
C957       C1213   1.472       .  S
O958       Cr963   2.011       .  S
O959       Cr963   2.000       .  S
O959        C960   1.259       .  A
C960       O1368   1.261       .  A
C960       C1020   1.497       .  S
Cr961      O1368   2.002       .  S
Cr961      O1369   2.037       .  S
Cr961       O964   1.776       .  S
Cr962      O1371   1.971       .  S
Cr962       O964   1.778       .  S
Cr963       O964   1.779       .  S
O965       Cr983   2.003       .  S
O965        C973   1.271       .  A
O966       Cr983   2.001       .  S
O966        C967   1.265       .  A
C967        O968   1.267       .  A
C967       C1053   1.473       .  S
O968       Cr984   2.000       .  S
O969       Cr984   2.007       .  S
O969        C970   1.259       .  A
C970        O971   1.257       .  A
C970       C1133   1.472       .  S
O971       Cr985   1.977       .  S
O972       Cr985   2.017       .  S
O972        C973   1.273       .  A
C973       C1010   1.499       .  S
O975        C976   1.269       .  A
C976        O977   1.260       .  A
C976       C1123   1.479       .  S
O978       Cr984   1.963       .  S
O978        C979   1.258       .  A
C979        O980   1.272       .  A
C979       C1063   1.474       .  S
O980       Cr985   2.025       .  S
O981       Cr985   1.995       .  S
O981        C982   1.260       .  A
C982       C1033   1.491       .  S
Cr983       O986   1.774       .  S
Cr984       O986   1.775       .  S
Cr985       O986   1.771       .  S
O987      Cr1005   2.003       .  S
O987        C995   1.271       .  A
O988      Cr1005   1.990       .  S
O988        C989   1.264       .  A
C989        O990   1.265       .  A
C989       C1113   1.475       .  S
O990      Cr1006   2.000       .  S
O991      Cr1006   2.002       .  S
O991        C992   1.259       .  A
C992        O993   1.259       .  A
C992       C1073   1.481       .  S
O993      Cr1007   1.978       .  S
O994      Cr1007   2.016       .  S
O994        C995   1.272       .  A
C995       C1013   1.500       .  S
O996      Cr1005   2.001       .  S
O996       C1004   1.260       .  A
O997      Cr1005   2.026       .  S
O997        C998   1.271       .  A
C998        O999   1.260       .  A
C998       C1080   1.481       .  S
O999      Cr1006   1.981       .  S
O1000     Cr1422   1.965       .  S
O1000      C1001   1.260       .  A
C1001      O1002   1.269       .  A
C1001      C1103   1.481       .  S
O1002     Cr1423   2.022       .  S
O1003     Cr1423   1.999       .  S
O1003      C1420   1.261       .  A
C1004      O1419   1.261   1_545  A
C1004      C1023   1.496       .  S
Cr1005     O1008   1.775       .  S
Cr1006     O1416   1.965   1_545  S
Cr1006     O1008   1.779       .  S
Cr1007     O1418   2.022   1_545  S
Cr1007     O1419   1.999   1_545  S
Cr1007     O1008   1.774       .  S
C1009      C1010   1.411       .  A
C1009      C1014   1.407       .  A
C1009      H1015   1.083       .  S
C1010      C1011   1.406       .  A
C1011      C1012   1.407       .  A
C1011      H1016   1.083       .  S
C1012      C1013   1.411       .  A
C1012      H1017   1.083       .  S
C1013      C1014   1.407       .  A
C1014      H1018   1.083       .  S
C1019      C1436   1.406   1_545  A
C1019      C1024   1.404   1_556  A
C1019      H1025   1.083       .  S
C1020      C1435   1.406       .  A
C1020      C1021   1.411       .  A
C1021      C1022   1.405   1_556  A
C1021      H1026   1.082       .  S
C1022      C1439   1.406       .  A
C1022      H1027   1.083       .  S
C1023      C1438   1.406   1_545  A
C1023      C1024   1.410       .  A
C1024      H1028   1.082       .  S
C1029      C1030   1.404       .  A
C1029      C1034   1.402   1_556  A
C1029      H1035   1.083       .  S
C1031      C1032   1.405   1_556  A
C1031      H1036   1.083       .  S
C1032      C1033   1.407       .  A
C1032      H1037   1.083       .  S
C1034      H1038   1.083       .  S
C1039      C1040   1.410       .  A
C1039      C1044   1.411       .  A
C1039      H1045   1.083       .  S
C1040      C1041   1.409       .  A
C1041      C1042   1.403       .  A
C1041      H1046   1.083       .  S
C1042      C1043   1.408       .  A
C1042      H1047   1.083       .  S
C1043      C1044   1.411       .  A
C1044      H1048   1.083       .  S
C1049      C1050   1.400       .  A
C1049      C1054   1.398       .  A
C1049      H1055   1.084       .  S
C1051      C1052   1.402       .  A
C1051      H1056   1.083       .  S
C1052      C1053   1.400       .  A
C1052      H1057   1.083       .  S
C1054      H1058   1.084       .  S
C1059      C1060   1.400       .  A
C1059      H1065   1.083       .  S
C1060      C1061   1.407   1_655  A
C1061      H1066   1.084       .  S
C1062      C1063   1.400       .  A
C1062      H1067   1.084       .  S
C1063      C1064   1.409       .  A
C1064      H1068   1.083       .  S
C1069      C1486   1.406   1_545  A
C1069      C1074   1.389       .  A
C1069      H1075   1.083       .  S
C1070      C1485   1.406       .  A
C1070      C1071   1.403       .  A
C1071      C1072   1.408       .  A
C1071      H1076   1.083       .  S
C1072      C1489   1.412       .  A
C1072      H1077   1.083       .  S
C1073      C1488   1.412   1_545  A
C1073      C1074   1.400       .  A
C1074      H1078   1.084       .  S
C1079      C1496   1.406       .  A
C1079      C1084   1.389       .  A
C1079      H1085   1.082       .  S
C1080      C1495   1.406   1_545  A
C1080      C1081   1.404       .  A
C1081      C1082   1.411       .  A
C1081      H1086   1.083       .  S
C1082      C1499   1.413   1_545  A
C1082      H1087   1.082       .  S
C1083      C1498   1.413       .  A
C1083      C1084   1.400       .  A
C1084      H1088   1.084       .  S
C1089      C1090   1.413       .  A
C1089      C1094   1.412       .  A
C1089      H1095   1.082       .  S
C1090      C1091   1.405       .  A
C1091      C1092   1.399       .  A
C1091      H1096   1.083       .  S
C1092      C1093   1.411       .  A
C1092      H1097   1.083       .  S
C1093      C1094   1.408       .  A
C1094      H1098   1.083       .  S
C1099      C1100   1.399       .  A
C1099      C1104   1.393       .  A
C1099      H1105   1.084       .  S
C1100      C1101   1.406       .  A
C1101      C1102   1.405       .  A
C1101      H1106   1.083       .  S
C1102      C1103   1.406       .  A
C1102      H1107   1.083       .  S
C1103      C1104   1.406       .  A
C1104      H1108   1.080       .  S
C1109      C1110   1.395       .  A
C1109      C1114   1.388       .  A
C1109      H1115   1.084       .  S
C1110      C1111   1.407       .  A
C1111      C1112   1.407       .  A
C1111      H1116   1.083       .  S
C1112      C1113   1.404       .  A
C1112      H1117   1.083       .  S
C1113      C1114   1.406       .  A
C1114      H1118   1.084       .  S
C1119      C1120   1.396       .  A
C1119      C1124   1.389       .  A
C1119      H1125   1.084       .  S
C1120      C1121   1.409       .  A
C1121      C1122   1.409       .  A
C1121      H1126   1.083       .  S
C1122      C1123   1.404       .  A
C1122      H1127   1.082       .  S
C1123      C1124   1.408       .  A
C1124      H1128   1.083       .  S
C1129      C1130   1.404       .  A
C1129      C1134   1.408       .  A
C1129      H1135   1.083       .  S
C1130      C1131   1.413       .  A
C1131      C1132   1.391       .  A
C1131      H1136   1.083       .  S
C1132      C1133   1.395       .  A
C1132      H1137   1.084       .  S
C1133      C1134   1.409       .  A
C1134      H1138   1.083       .  S
C1139      C1140   1.404       .  A
C1139      C1144   1.398       .  A
C1139      H1145   1.083       .  S
C1140      C1141   1.406       .  A
C1141      C1142   1.404       .  A
C1141      H1146   1.083       .  S
C1142      C1143   1.407       .  A
C1142      H1147   1.082       .  S
C1143      C1144   1.407       .  A
C1144      H1148   1.083       .  S
C1149      C1150   1.406       .  A
C1149      C1154   1.410       .  A
C1149      H1155   1.083       .  S
C1150      C1151   1.411       .  A
C1151      C1152   1.393       .  A
C1151      H1156   1.082       .  S
C1152      C1153   1.398       .  A
C1152      H1157   1.084       .  S
C1153      C1154   1.409       .  A
C1154      H1158   1.083       .  S
C1159      C1160   1.406       .  A
C1159      C1164   1.394       .  A
C1159      H1165   1.081       .  S
C1160      C1161   1.401       .  A
C1161      C1162   1.403       .  A
C1161      H1166   1.083       .  S
C1162      C1163   1.407       .  A
C1162      H1167   1.083       .  S
C1163      C1164   1.396       .  A
C1164      H1168   1.084       .  S
C1169      C1170   1.402       .  A
C1169      C1174   1.406       .  A
C1169      H1175   1.083       .  S
C1170      C1171   1.410       .  A
C1171      C1172   1.402       .  A
C1171      H1176   1.083       .  S
C1172      C1173   1.401       .  A
C1172      H1177   1.084       .  S
C1173      C1174   1.410       .  A
C1174      H1178   1.083       .  S
C1179      C1180   1.399       .  A
C1179      C1184   1.400       .  A
C1179      H1185   1.084       .  S
C1180      C1181   1.412       .  A
C1181      C1182   1.409       .  A
C1181      H1186   1.082       .  S
C1182      C1183   1.403       .  A
C1182      H1187   1.083       .  S
C1183      C1184   1.411       .  A
C1184      H1188   1.083       .  S
C1189      C1194   1.404       .  A
C1189      H1195   1.083       .  S
C1190      C1191   1.409       .  A
C1191      C1192   1.405       .  A
C1191      H1196   1.082       .  S
C1192      H1197   1.083       .  S
C1193      C1194   1.408   1_655  A
C1194      H1198   1.083       .  S
C1199      C1200   1.410       .  A
C1199      C1204   1.403       .  A
C1199      H1205   1.083       .  S
C1200      C1201   1.410       .  A
C1201      C1202   1.413       .  A
C1201      H1206   1.083       .  S
C1202      C1203   1.412       .  A
C1202      H1207   1.083       .  S
C1203      C1204   1.407       .  A
C1204      H1208   1.083       .  S
C1209      C1210   1.395       .  A
C1209      C1214   1.391       .  A
C1209      H1215   1.084       .  S
C1210      C1627   1.408   1_545  A
C1211      C1626   1.408       .  A
C1211      C1212   1.405       .  A
C1211      H1216   1.083       .  S
C1212      C1213   1.402       .  A
C1212      H1217   1.083       .  S
C1213      C1630   1.407       .  A
C1214      C1629   1.407   1_545  A
C1214      H1218   1.083       .  S
C1219      C1220   1.406       .  A
C1219      C1224   1.411       .  A
C1219      H1225   1.083       .  S
C1220      C1637   1.412   1_545  A
C1221      C1636   1.412       .  A
C1221      C1222   1.394       .  A
C1221      H1226   1.082       .  S
C1222      C1223   1.396       .  A
C1222      H1227   1.084       .  S
C1223      C1640   1.411       .  A
C1224      C1639   1.411   1_545  A
C1224      H1228   1.083       .  S
C1229      C1230   1.410       .  A
C1229      H1235   1.083       .  S
C1230      C1231   1.402       .  A
C1231      H1236   1.083       .  S
C1232      C1233   1.404   1_455  A
C1232      H1237   1.084       .  S
C1233      C1234   1.403       .  A
C1234      H1238   1.082       .  S
C1239      C1240   1.404       .  A
C1239      C1244   1.407       .  A
C1239      H1245   1.083       .  S
C1241      C1242   1.385   1_455  A
C1241      H1246   1.083   1_455  S
C1242      C1243   1.401       .  A
C1242      H1247   1.084       .  S
C1244      H1248   1.082       .  S
O1249     Cr1267   1.975       .  S
O1249      C1257   1.264       .  A
O1250     Cr1267   2.017       .  S
O1250      C1251   1.270       .  A
C1251      O1252   1.261       .  A
C1251      C1626   1.464       .  S
O1252     Cr1268   1.974       .  S
O1253     Cr1268   2.007       .  S
O1253      C1254   1.258       .  A
C1254      O1255   1.252       .  A
C1254      C1646   1.477       .  S
O1255     Cr1269   1.961       .  S
O1256     Cr1269   2.042       .  S
O1256      C1257   1.278       .  A
C1257      C1616   1.504       .  S
O1259      C1260   1.263       .  A
C1260      O1261   1.260       .  A
C1260      C1656   1.473       .  S
O1262      C1263   1.256       .  A
C1263      O1264   1.280       .  A
C1263      C1636   1.492       .  S
C1266      C1606   1.494       .  S
Cr1267     O1270   1.776       .  S
Cr1268     O1270   1.777       .  S
Cr1269     O1270   1.772       .  S
O1271     Cr1289   2.036       .  S
O1271      C1279   1.277       .  A
O1272     Cr1289   1.971       .  S
O1272      C1273   1.256       .  A
C1273      O1274   1.263       .  A
C1273      C1569   1.478       .  S
O1274     Cr1290   2.019       .  S
O1275     Cr1290   2.010       .  S
O1275      C1276   1.268       .  A
C1276      O1277   1.264       .  A
C1276      C1586   1.485       .  S
O1277     Cr1291   2.006       .  S
O1278     Cr1291   1.991       .  S
O1278      C1279   1.270       .  A
C1279      C1619   1.503       .  S
O1280     Cr1289   1.989       .  S
O1280      C1288   1.258       .  A
O1281     Cr1289   2.041       .  S
O1281      C1282   1.274       .  A
C1282      O1283   1.257       .  A
C1282      C1596   1.485       .  S
O1283     Cr1290   1.970       .  S
O1284     Cr1290   1.988       .  S
O1284      C1285   1.263       .  A
C1285      O1286   1.267       .  A
C1285      C1576   1.470       .  S
O1286     Cr1291   2.005       .  S
O1287     Cr1291   1.999       .  S
O1287      C1288   1.260       .  A
C1288      C1559   1.487       .  S
Cr1289     O1292   1.774       .  S
Cr1290     O1292   1.777       .  S
Cr1291     O1292   1.776       .  S
O1293     Cr1311   2.049       .  S
O1293      C1301   1.279       .  A
O1294     Cr1311   1.963       .  S
O1294      C1295   1.252       .  A
C1295      O1296   1.262       .  A
C1295      C1516   1.470       .  S
O1296     Cr1312   2.020       .  S
O1297     Cr1312   1.982       .  S
O1297      C1298   1.263       .  A
C1298      O1299   1.269       .  A
C1298      C1536   1.469       .  S
O1299     Cr1313   2.010       .  S
O1300     Cr1313   1.962       .  S
O1300      C1301   1.262       .  A
C1301      C1509   1.500       .  S
O1302     Cr1311   1.983       .  S
O1302      C1310   1.256       .  A
O1303     Cr1311   2.058       .  S
O1303      C1304   1.279       .  A
C1304      O1305   1.254       .  A
C1304      C1546   1.487       .  S
O1305     Cr1312   1.932       .  S
O1306     Cr1312   2.001       .  S
O1306      C1307   1.264       .  A
C1307      O1308   1.259       .  A
C1307      C1526   1.463       .  S
O1308     Cr1313   1.990       .  S
O1309     Cr1313   1.998       .  S
O1309      C1310   1.261       .  A
C1310      C1556   1.482       .  S
Cr1311     O1314   1.773       .  S
Cr1312     O1314   1.777       .  S
Cr1313     O1314   1.767       .  S
O1315     Cr1333   1.992       .  S
O1315      C1323   1.269       .  A
O1316     Cr1333   2.004   1_455  S
O1316      C1317   1.266   1_455  A
C1317      O1318   1.266       .  A
C1317      C1476   1.471       .  S
O1318     Cr1334   1.996       .  S
O1319     Cr1334   2.010       .  S
O1319      C1320   1.260       .  A
C1320      O1321   1.258       .  A
C1320      C1499   1.485       .  S
O1321     Cr1335   1.977       .  S
O1322     Cr1335   2.021       .  S
O1322      C1323   1.272       .  A
C1323      C1506   1.499       .  S
O1325      C1326   1.268       .  A
C1326      O1327   1.260       .  A
C1326      C1486   1.476       .  S
O1328      C1329   1.258       .  A
C1329      O1330   1.273       .  A
C1329      C1466   1.474       .  S
C1332      C1609   1.493       .  S
Cr1333     O1336   1.775       .  S
Cr1334     O1336   1.775       .  S
Cr1335     O1336   1.772       .  S
O1337     Cr1355   1.980       .  S
O1337      C1345   1.266       .  A
O1338     Cr1355   2.015       .  S
O1338      C1339   1.269       .  A
C1339      O1340   1.262       .  A
C1339      C1579   1.464       .  S
O1340     Cr1356   1.979       .  S
O1341     Cr1356   2.006       .  S
O1341      C1342   1.257       .  A
C1342      O1343   1.253       .  A
C1342      C1659   1.478       .  S
O1343     Cr1357   1.962       .  S
O1344     Cr1357   2.036       .  S
O1344      C1345   1.277       .  A
C1345      C1456   1.502       .  S
O1346     Cr1355   2.010       .  S
O1346      C1354   1.263       .  A
O1347     Cr1355   2.007       .  S
O1347      C1348   1.264       .  A
C1348      O1349   1.259       .  A
C1348      C1649   1.472       .  S
O1349     Cr1356   1.980       .  S
O1350      C1351   1.257       .  A
C1351      O1352   1.279       .  A
C1351      C1566   1.491       .  S
C1354      C1446   1.489       .  S
Cr1355     O1358   1.776       .  S
Cr1356     O1358   1.780       .  S
Cr1357     O1358   1.773       .  S
O1359     Cr1377   2.035       .  S
O1359      C1367   1.277       .  A
O1360     Cr1377   1.984       .  S
O1360      C1361   1.259       .  A
C1361      O1362   1.260       .  A
C1361      C1639   1.480       .  S
O1362     Cr1378   2.010       .  S
O1363     Cr1378   2.016       .  S
O1363      C1364   1.271       .  A
C1364      O1365   1.265       .  A
C1364      C1599   1.489       .  S
O1365     Cr1379   2.001       .  S
O1366     Cr1379   1.987       .  S
O1366      C1367   1.269       .  A
C1367      C1459   1.502       .  S
O1369      C1370   1.274       .  A
C1370      O1371   1.259       .  A
C1370      C1589   1.483       .  S
O1372     Cr1378   1.980       .  S
O1372      C1373   1.261       .  A
C1373      O1374   1.267       .  A
C1373      C1629   1.471       .  S
O1374     Cr1379   2.011       .  S
O1375     Cr1379   2.000       .  S
O1375      C1376   1.259       .  A
C1376      C1436   1.497       .  S
Cr1377     O1380   1.776       .  S
Cr1378     O1380   1.778       .  S
Cr1379     O1380   1.779       .  S
O1381     Cr1399   2.002       .  S
O1381      C1389   1.271       .  A
O1382     Cr1399   2.002       .  S
O1382      C1383   1.265       .  A
C1383      O1384   1.267       .  A
C1383      C1469   1.473       .  S
O1384     Cr1400   2.000       .  S
O1385     Cr1400   2.008       .  S
O1385      C1386   1.259       .  A
C1386      O1387   1.257       .  A
C1386      C1549   1.472       .  S
O1387     Cr1401   1.977       .  S
O1388     Cr1401   2.017       .  S
O1388      C1389   1.273       .  A
C1389      C1426   1.499       .  S
O1391      C1392   1.269       .  A
C1392      O1393   1.260       .  A
C1392      C1539   1.479       .  S
O1394     Cr1400   1.963       .  S
O1394      C1395   1.258       .  A
C1395      O1396   1.272       .  A
C1395      C1479   1.474       .  S
O1396     Cr1401   2.025       .  S
O1397     Cr1401   1.995       .  S
O1397      C1398   1.260       .  A
C1398      C1449   1.491       .  S
Cr1399     O1402   1.774       .  S
Cr1400     O1402   1.775       .  S
Cr1401     O1402   1.771       .  S
O1403     Cr1421   2.003       .  S
O1403      C1411   1.270       .  A
O1404     Cr1421   1.989       .  S
O1404      C1405   1.264       .  A
C1405      O1406   1.265       .  A
C1405      C1529   1.475       .  S
O1406     Cr1422   2.001       .  S
O1407     Cr1422   2.002       .  S
O1407      C1408   1.259       .  A
C1408      O1409   1.259       .  A
C1408      C1489   1.481       .  S
O1409     Cr1423   1.978       .  S
O1410     Cr1423   2.016       .  S
O1410      C1411   1.272       .  A
C1411      C1429   1.500       .  S
O1412     Cr1421   2.001       .  S
O1412      C1420   1.260       .  A
O1413     Cr1421   2.025       .  S
O1413      C1414   1.271       .  A
C1414      O1415   1.260       .  A
C1414      C1496   1.481       .  S
O1415     Cr1422   1.981       .  S
O1416      C1417   1.260       .  A
C1417      O1418   1.270       .  A
C1417      C1519   1.481       .  S
C1420      C1439   1.496       .  S
Cr1421     O1424   1.775       .  S
Cr1422     O1424   1.779       .  S
Cr1423     O1424   1.774       .  S
C1425      C1426   1.411       .  A
C1425      C1430   1.407       .  A
C1425      H1431   1.083       .  S
C1426      C1427   1.406       .  A
C1427      C1428   1.407       .  A
C1427      H1432   1.083       .  S
C1428      C1429   1.411       .  A
C1428      H1433   1.083       .  S
C1429      C1430   1.407       .  A
C1430      H1434   1.083       .  S
C1435      C1440   1.404   1_556  A
C1435      H1441   1.083       .  S
C1436      C1437   1.411       .  A
C1437      C1438   1.405   1_556  A
C1437      H1442   1.082       .  S
C1438      H1443   1.083       .  S
C1439      C1440   1.410       .  A
C1440      H1444   1.082       .  S
C1445      C1446   1.404       .  A
C1445      C1450   1.402   1_556  A
C1445      H1451   1.083       .  S
C1447      C1448   1.404   1_556  A
C1447      H1452   1.083       .  S
C1448      C1449   1.407       .  A
C1448      H1453   1.083       .  S
C1450      H1454   1.083       .  S
C1455      C1456   1.410       .  A
C1455      C1460   1.411       .  A
C1455      H1461   1.083       .  S
C1456      C1457   1.409       .  A
C1457      C1458   1.403       .  A
C1457      H1462   1.083       .  S
C1458      C1459   1.408       .  A
C1458      H1463   1.083       .  S
C1459      C1460   1.411       .  A
C1460      H1464   1.083       .  S
C1465      C1466   1.400       .  A
C1465      C1470   1.397       .  A
C1465      H1471   1.084       .  S
C1467      C1468   1.401       .  A
C1467      H1472   1.083       .  S
C1468      C1469   1.400       .  A
C1468      H1473   1.083       .  S
C1470      H1474   1.084       .  S
C1475      C1476   1.400       .  A
C1475      H1481   1.083       .  S
C1476      C1477   1.407   1_655  A
C1477      H1482   1.084       .  S
C1478      C1479   1.400       .  A
C1478      H1483   1.084       .  S
C1479      C1480   1.409       .  A
C1480      H1484   1.083       .  S
C1485      C1490   1.389       .  A
C1485      H1491   1.083       .  S
C1486      C1487   1.403       .  A
C1487      C1488   1.408       .  A
C1487      H1492   1.083       .  S
C1488      H1493   1.083       .  S
C1489      C1490   1.400       .  A
C1490      H1494   1.084       .  S
C1495      C1500   1.389       .  A
C1495      H1501   1.082       .  S
C1496      C1497   1.404       .  A
C1497      C1498   1.411       .  A
C1497      H1502   1.083       .  S
C1498      H1503   1.082       .  S
C1499      C1500   1.400       .  A
C1500      H1504   1.084       .  S
C1505      C1506   1.413       .  A
C1505      C1510   1.412       .  A
C1505      H1511   1.082       .  S
C1506      C1507   1.405       .  A
C1507      C1508   1.399       .  A
C1507      H1512   1.083       .  S
C1508      C1509   1.411       .  A
C1508      H1513   1.083       .  S
C1509      C1510   1.408       .  A
C1510      H1514   1.083       .  S
C1515      C1516   1.399       .  A
C1515      C1520   1.393       .  A
C1515      H1521   1.084       .  S
C1516      C1517   1.406       .  A
C1517      C1518   1.405       .  A
C1517      H1522   1.083       .  S
C1518      C1519   1.406       .  A
C1518      H1523   1.083       .  S
C1519      C1520   1.406       .  A
C1520      H1524   1.080       .  S
C1525      C1526   1.395       .  A
C1525      C1530   1.388       .  A
C1525      H1531   1.084       .  S
C1526      C1527   1.407       .  A
C1527      C1528   1.407       .  A
C1527      H1532   1.083       .  S
C1528      C1529   1.404       .  A
C1528      H1533   1.083       .  S
C1529      C1530   1.407       .  A
C1530      H1534   1.084       .  S
C1535      C1536   1.396       .  A
C1535      C1540   1.389       .  A
C1535      H1541   1.084       .  S
C1536      C1537   1.409       .  A
C1537      C1538   1.409       .  A
C1537      H1542   1.083       .  S
C1538      C1539   1.404       .  A
C1538      H1543   1.082       .  S
C1539      C1540   1.408       .  A
C1540      H1544   1.083       .  S
C1545      C1546   1.404       .  A
C1545      C1550   1.408       .  A
C1545      H1551   1.083       .  S
C1546      C1547   1.413       .  A
C1547      C1548   1.391       .  A
C1547      H1552   1.083       .  S
C1548      C1549   1.395       .  A
C1548      H1553   1.084       .  S
C1549      C1550   1.409       .  A
C1550      H1554   1.083       .  S
C1555      C1556   1.404       .  A
C1555      C1560   1.398       .  A
C1555      H1561   1.083       .  S
C1556      C1557   1.406       .  A
C1557      C1558   1.404       .  A
C1557      H1562   1.083       .  S
C1558      C1559   1.407       .  A
C1558      H1563   1.082       .  S
C1559      C1560   1.407       .  A
C1560      H1564   1.083       .  S
C1565      C1566   1.406       .  A
C1565      C1570   1.410       .  A
C1565      H1571   1.083       .  S
C1566      C1567   1.411       .  A
C1567      C1568   1.393       .  A
C1567      H1572   1.082       .  S
C1568      C1569   1.398       .  A
C1568      H1573   1.084       .  S
C1569      C1570   1.409       .  A
C1570      H1574   1.083       .  S
C1575      C1576   1.406       .  A
C1575      C1580   1.394       .  A
C1575      H1581   1.081       .  S
C1576      C1577   1.401       .  A
C1577      C1578   1.403       .  A
C1577      H1582   1.083       .  S
C1578      C1579   1.407       .  A
C1578      H1583   1.083       .  S
C1579      C1580   1.396       .  A
C1580      H1584   1.084       .  S
C1585      C1586   1.402       .  A
C1585      C1590   1.406       .  A
C1585      H1591   1.083       .  S
C1586      C1587   1.410       .  A
C1587      C1588   1.402       .  A
C1587      H1592   1.083       .  S
C1588      C1589   1.401       .  A
C1588      H1593   1.084       .  S
C1589      C1590   1.410       .  A
C1590      H1594   1.083       .  S
C1595      C1596   1.399       .  A
C1595      C1600   1.400       .  A
C1595      H1601   1.084       .  S
C1596      C1597   1.412       .  A
C1597      C1598   1.409       .  A
C1597      H1602   1.082       .  S
C1598      C1599   1.403       .  A
C1598      H1603   1.083       .  S
C1599      C1600   1.411       .  A
C1600      H1604   1.083       .  S
C1605      C1610   1.405       .  A
C1605      H1611   1.083       .  S
C1606      C1607   1.409       .  A
C1607      C1608   1.405       .  A
C1607      H1612   1.082       .  S
C1608      H1613   1.083       .  S
C1609      C1610   1.409   1_655  A
C1610      H1614   1.083       .  S
C1615      C1616   1.410       .  A
C1615      C1620   1.403       .  A
C1615      H1621   1.083       .  S
C1616      C1617   1.410       .  A
C1617      C1618   1.413       .  A
C1617      H1622   1.083       .  S
C1618      C1619   1.412       .  A
C1618      H1623   1.083       .  S
C1619      C1620   1.407       .  A
C1620      H1624   1.083       .  S
C1625      C1626   1.395       .  A
C1625      C1630   1.391       .  A
C1625      H1631   1.084       .  S
C1627      C1628   1.405       .  A
C1627      H1632   1.083       .  S
C1628      C1629   1.402       .  A
C1628      H1633   1.083       .  S
C1630      H1634   1.083       .  S
C1635      C1636   1.406       .  A
C1635      C1640   1.411       .  A
C1635      H1641   1.083       .  S
C1637      C1638   1.394       .  A
C1637      H1642   1.082       .  S
C1638      C1639   1.396       .  A
C1638      H1643   1.084       .  S
C1640      H1644   1.083       .  S
C1645      C1646   1.410       .  A
C1645      H1651   1.083       .  S
C1646      C1647   1.402       .  A
C1647      H1652   1.083       .  S
C1648      C1649   1.404   1_455  A
C1648      H1653   1.084       .  S
C1649      C1650   1.403       .  A
C1650      H1654   1.082       .  S
C1655      C1656   1.404       .  A
C1655      C1660   1.408       .  A
C1655      H1661   1.083       .  S
C1657      C1658   1.385   1_455  A
C1657      H1662   1.083   1_455  S
C1658      C1659   1.401       .  A
C1658      H1663   1.084       .  S
C1660      H1664   1.082       .  S
