geometry optimzed in LAMMPS
_audit_creation_date              2020-12-01 
_audit_creation_method            'lammps2cif' 
_symmetry_space_group_name_H-M    'P1' 
_symmetry_Int_Tables_number       1 
_symmetry_cell_setting            triclinic 
loop_ 
_symmetry_equiv_pos_as_xyz 
  x,y,z 
_cell_length_a                    38.82019997 
_cell_length_b                    38.333542244127706 
_cell_length_c                    43.44554264832799 
_cell_angle_alpha                 90.13908304673457 
_cell_angle_beta                  90.06535862800256 
_cell_angle_gamma                 89.95188924457975 
loop_ 
_atom_site_label 
_atom_site_type_symbol 
_atom_site_fract_x 
_atom_site_fract_y 
_atom_site_fract_z 
_atom_site_charge 
O1          O  0.11189183  0.37086741  0.48360252    -0.83600
C2          C  0.13902434  0.33188737  0.36228500     0.95800
O3          O  0.16250357  0.33758089  0.38196945    -0.72700
O4          O  0.15507807  0.39851174  0.40794377    -0.76300
Al5        Al  0.15931959  0.35311203  0.42417334     1.49000
C6          C  0.13655957  0.42313589  0.41745926     0.91000
O7          O  0.05937960  0.38430788  0.41162144    -0.82500
O8          O  0.07831628  0.29095414  0.44799541    -0.76100
Al9        Al  0.08723312  0.37608906  0.44665421     1.90100
O10         O  0.05141185  0.32929337  0.40017007    -0.75100
O11         O  0.13430786  0.27740287  0.41393556    -0.75000
O12         O  0.10931732  0.32235457  0.37039324    -0.80600
O13         O  0.17049906  0.30897125  0.44031741    -0.78800
O14         O  0.11404807  0.34587645  0.42688131    -1.15000
O15         O  0.16470744  0.37021962  0.46548824    -0.74200
C16         C  0.14397489  0.37173601  0.48785901     0.96500
C17         C  0.04214848  0.36085591  0.39834514     0.92900
Al18       Al  0.09509694  0.30806473  0.40958714     1.55600
O19         O  0.11177065  0.41750120  0.43544873    -0.78800
C20         C  0.16177909  0.27996229  0.42932223     0.97100
C21         C  0.05817073  0.30870768  0.46467430     0.92000
O22         O  0.05652483  0.34154796  0.46238992    -0.84100
O23         O  0.33120512  0.07982063  0.38862758    -0.83600
C24         C  0.35469830  0.17186492  0.48864634     0.95800
O25         O  0.37056738  0.14376178  0.48321733    -0.72700
O26         O  0.32332656  0.09516962  0.47797426    -0.76300
Al27       Al  0.36157722  0.10761074  0.45366721     1.49000
C28         C  0.29769611  0.07845833  0.46784258     0.91000
O29         O  0.26701986  0.14439245  0.42326765    -0.82500
O30         O  0.35201462  0.17453234  0.38359000    -0.76100
Al31       Al  0.30137734  0.11330336  0.40742492     1.90100
O32         O  0.29750837  0.19233564  0.42014280    -0.75100
O33         O  0.39325021  0.17456282  0.43046671    -0.75000
O34         O  0.33671245  0.18628703  0.46823996    -0.80600
O35         O  0.40225830  0.11806512  0.43095565    -0.78800
O36         O  0.33541427  0.13304924  0.42889323    -1.15000
O37         O  0.35874141  0.06519747  0.43059809    -0.74200
C38         C  0.34950561  0.05846438  0.40340300     0.96500
C39         C  0.26902713  0.17723708  0.42405614     0.92900
Al40       Al  0.34398664  0.17831136  0.42574893     1.55600
O41         O  0.28854039  0.08091146  0.43984364    -0.78800
C42         C  0.41315603  0.14871411  0.42666436     0.97100
C43         C  0.33360100  0.16020106  0.36335898     0.92000
O44         O  0.30838710  0.14101077  0.37081653    -0.84100
O45         O  0.11423719  0.67611492  0.03674211    -0.83600
C46         C  0.14088037  0.71493051  0.15786706     0.95800
O47         O  0.16459060  0.71131687  0.13809655    -0.72700
O48         O  0.15680872  0.64996423  0.11404342    -0.76300
Al49       Al  0.16109341  0.69435926  0.09627012     1.49000
C50         C  0.13990297  0.62449037  0.10390759     0.91000
O51         O  0.06219960  0.66045432  0.10859595    -0.82500
O52         O  0.07873746  0.75460340  0.07268965    -0.76100
Al53       Al  0.08993125  0.66974276  0.07351145     1.90100
O54         O  0.05304588  0.71528299  0.12029623    -0.75100
O55         O  0.13477323  0.76904916  0.10622620    -0.75000
O56         O  0.11080361  0.72333697  0.14986703    -0.80600
O57         O  0.17095245  0.73819725  0.07896304    -0.78800
O58         O  0.11580695  0.70057685  0.09341458    -1.15000
O59         O  0.16688864  0.67573092  0.05520187    -0.74200
C60         C  0.14628878  0.67459758  0.03262509     0.96500
C61         C  0.04437066  0.68351994  0.12190143     0.92900
Al62       Al  0.09611054  0.73769687  0.11087795     1.55600
O63         O  0.11639205  0.62893208  0.08420724    -0.78800
C64         C  0.16174413  0.76706383  0.09004148     0.97100
C65         C  0.05906719  0.73646560  0.05588560     0.92000
O66         O  0.05812775  0.70356916  0.05806023    -0.84100
O67         O  0.32659718  0.96848419  0.13057891    -0.83600
C68         C  0.35576534  0.87708007  0.03068537     0.95800
O69         O  0.37129395  0.90507087  0.03726709    -0.72700
O70         O  0.32605643  0.95570219  0.04223580    -0.76300
Al71       Al  0.36246352  0.94032966  0.06762894     1.49000
C72         C  0.29876250  0.97059184  0.05100681     0.91000
O73         O  0.26516552  0.90357964  0.09413102    -0.82500
O74         O  0.34781854  0.87161558  0.13558568    -0.76100
Al75       Al  0.29893281  0.93448240  0.11085994     1.90100
O76         O  0.29523733  0.85548812  0.09668406    -0.75100
O77         O  0.39089709  0.87140998  0.09005240    -0.75000
O78         O  0.33641365  0.86249829  0.04998955    -0.80600
O79         O  0.40188114  0.92737820  0.09107540    -0.78800
O80         O  0.33415424  0.91481090  0.09055938    -1.15000
O81         O  0.36057629  0.98153417  0.09218943    -0.74200
C82         C  0.34791606  0.98864841  0.11810964     0.96500
C83         C  0.26695985  0.87083573  0.09289413     0.92900
Al84       Al  0.34172462  0.86911274  0.09298759     1.55600
O85         O  0.28728047  0.96650814  0.07808201    -0.78800
C86         C  0.41165451  0.89623886  0.09461256     0.97100
C87         C  0.32952315  0.88646639  0.15565928     0.92000
O88         O  0.30519962  0.90681101  0.14788303    -0.84100
O89         O  0.69304883  0.07904040  0.13269849    -0.83600
C90         C  0.66640768  0.17004274  0.03200611     0.95800
O91         O  0.65062248  0.14222883  0.03851656    -0.72700
O92         O  0.69533706  0.09131505  0.04417927    -0.76300
Al93       Al  0.65868603  0.10712465  0.06902811     1.49000
C94         C  0.72208209  0.07582140  0.05344598     0.91000
O95         O  0.75583493  0.14265677  0.09642141    -0.82500
O96         O  0.67326959  0.17632602  0.13715970    -0.76100
Al97       Al  0.72153728  0.11248070  0.11308999     1.90100
O98         O  0.72637563  0.19121493  0.09869759    -0.75100
O99         O  0.63034975  0.17650470  0.09122139    -0.75000
O100        O  0.68557288  0.18466491  0.05153462    -0.80600
O101        O  0.61913063  0.12056229  0.09190386    -0.78800
O102        O  0.68682981  0.13248405  0.09233092    -1.15000
O103        O  0.65984396  0.06599423  0.09362045    -0.74200
C104        C  0.67199270  0.05883093  0.11972588     0.96500
C105        C  0.75443959  0.17540504  0.09496068     0.92900
Al106      Al  0.67971135  0.17831277  0.09458411     1.55600
O107        O  0.73307572  0.07977622  0.08072246    -0.78800
C108        C  0.60941142  0.15173471  0.09540652     0.97100
C109        C  0.69154188  0.16168629  0.15734481     0.92000
O110        O  0.71550668  0.14082049  0.14976648    -0.84100
O111        O  0.90608530  0.36954669  0.03595055    -0.83600
C112        C  0.87970891  0.33142289  0.15746949     0.95800
O113        O  0.85626032  0.33544594  0.13747624    -0.72700
O114        O  0.86236945  0.39651867  0.11199927    -0.76300
Al115      Al  0.85951434  0.35118716  0.09540504     1.49000
C116        C  0.88000739  0.42173316  0.10244223     0.91000
O117        O  0.95860756  0.38612741  0.10765628    -0.82500
O118        O  0.94288191  0.29141177  0.07294252    -0.76100
Al119      Al  0.93071349  0.37620448  0.07284213     1.90100
O120        O  0.96771766  0.33174587  0.12046401    -0.75100
O121        O  0.88701149  0.27675075  0.10626514    -0.75000
O122        O  0.90992866  0.32326167  0.14970451    -0.80600
O123        O  0.85050953  0.30683574  0.07886468    -0.78800
O124        O  0.90501377  0.34550833  0.09296667    -1.15000
O125        O  0.85345584  0.36826285  0.05416575    -0.74200
C126        C  0.87398797  0.36985541  0.03167781     0.96500
C127        C  0.97610549  0.36358045  0.12179523     0.92900
Al128      Al  0.92508498  0.30875543  0.11085070     1.55600
O129        O  0.90461483  0.41681306  0.08398419    -0.78800
C130        C  0.86001955  0.27824799  0.09009210     0.97100
C131        C  0.96204714  0.30938245  0.05568648     0.92000
O132        O  0.96248551  0.34233239  0.05730918    -0.84100
O133        O  0.90557060  0.67408237  0.48420582    -0.83600
C134        C  0.88039381  0.71389069  0.36282884     0.95800
O135        O  0.85670617  0.70864054  0.38234034    -0.72700
O136        O  0.86250803  0.64761500  0.40824632    -0.76300
Al137      Al  0.85919377  0.69319389  0.42454085     1.49000
C138        C  0.88067053  0.62264517  0.41758495     0.91000
O139        O  0.95897802  0.66007039  0.41282477    -0.82500
O140        O  0.94151110  0.75371698  0.44913395    -0.76100
Al141      Al  0.93066314  0.66872280  0.44751677     1.90100
O142        O  0.96761157  0.71485645  0.40124620    -0.75100
O143        O  0.88594452  0.76859939  0.41503714    -0.75000
O144        O  0.91013067  0.72309748  0.37121680    -0.80600
O145        O  0.84892995  0.73753772  0.44074054    -0.78800
O146        O  0.90461826  0.69950055  0.42763662    -1.15000
O147        O  0.85292639  0.67630454  0.46579419    -0.74200
C148        C  0.87344616  0.67395651  0.48829155     0.96500
C149        C  0.97640440  0.68316678  0.39939985     0.92900
Al150      Al  0.92444478  0.73698286  0.41062283     1.55600
O151        O  0.90558303  0.62787947  0.43561249    -0.78800
C152        C  0.85841644  0.76649413  0.43031869     0.97100
C153        C  0.96108014  0.73557533  0.46597880     0.92000
O154        O  0.96173525  0.70267203  0.46389934    -0.84100
O155        O  0.68928165  0.96696767  0.39061140    -0.83600
C156        C  0.66462133  0.87373750  0.48928711     0.95800
O157        O  0.64886344  0.90182018  0.48364417    -0.72700
O158        O  0.69594853  0.95101562  0.47971248    -0.76300
Al159      Al  0.65817388  0.93821565  0.45467514     1.49000
C160        C  0.72185320  0.96765503  0.47008953     0.91000
O161        O  0.75395929  0.90276319  0.42463178    -0.82500
O162        O  0.67006851  0.87141359  0.38414398    -0.76100
Al163      Al  0.71918631  0.93357320  0.40909717     1.90100
O164        O  0.72396892  0.85452015  0.42180258    -0.75100
O165        O  0.62816886  0.87095835  0.43028014    -0.75000
O166        O  0.68370359  0.85984936  0.46932559    -0.80600
O167        O  0.61790415  0.92724334  0.43118576    -0.78800
O168        O  0.68516112  0.91323400  0.43005459    -1.15000
O169        O  0.66091734  0.98093907  0.43226389    -0.74200
C170        C  0.67059759  0.98803537  0.40533571     0.96500
C171        C  0.75227580  0.86993816  0.42567608     0.92900
Al172      Al  0.67734435  0.86785034  0.42655656     1.55600
O173        O  0.73141894  0.96541706  0.44219130    -0.78800
C174        C  0.60779326  0.89635275  0.42628779     0.97100
C175        C  0.68795219  0.88657523  0.36408823     0.92000
O176        O  0.71260299  0.90641758  0.37187167    -0.84100
O177        O  0.40852661  0.17475293  0.23217852    -0.83600
C178        C  0.37807379  0.21627235  0.11217787     0.95800
O179        O  0.35535842  0.21000593  0.13236371    -0.72700
O180        O  0.36217430  0.14911750  0.15801792    -0.76300
Al181      Al  0.35944695  0.19468596  0.17436030     1.49000
C182        C  0.38109432  0.12424565  0.16626085     0.91000
O183        O  0.45889355  0.16224278  0.15890212    -0.82500
O184        O  0.44229896  0.25513564  0.19712519    -0.76100
Al185      Al  0.43205343  0.17021029  0.19462300     1.90100
O186        O  0.46709987  0.21720924  0.14792629    -0.75100
O187        O  0.38572524  0.27015048  0.16443364    -0.75000
O188        O  0.40809253  0.22560134  0.11974010    -0.80600
O189        O  0.34933836  0.23909462  0.19081333    -0.78800
O190        O  0.40498282  0.20113028  0.17599276    -1.15000
O191        O  0.35512921  0.17786732  0.21562585    -0.74200
C192        C  0.37660108  0.17478680  0.23730780     0.96500
C193        C  0.47606074  0.18560392  0.14559230     0.92900
Al194      Al  0.42403250  0.23889659  0.15878897     1.55600
O195        O  0.40689408  0.12948224  0.18319144    -0.78800
C196        C  0.35854452  0.26802408  0.18013099     0.97100
C197        C  0.46216524  0.23677075  0.21353460     0.92000
O198        O  0.46351512  0.20400816  0.21047116    -0.84100
O199        O  0.18982230  0.46699281  0.13800604    -0.83600
C200        C  0.16340013  0.37711430  0.23887748     0.95800
O201        O  0.14774156  0.40489910  0.23209273    -0.72700
O202        O  0.19559746  0.45304909  0.22755256    -0.76300
Al203      Al  0.15812341  0.44022292  0.20245245     1.49000
C204        C  0.22173427  0.46929195  0.21793394     0.91000
O205        O  0.25398905  0.40368383  0.17380487    -0.82500
O206        O  0.17092800  0.37063569  0.13394202    -0.76100
Al207      Al  0.21944575  0.43402716  0.15752437     1.90100
O208        O  0.22401901  0.35530524  0.17294246    -0.75100
O209        O  0.12803118  0.37253840  0.17940056    -0.75000
O210        O  0.18290818  0.36255429  0.21963157    -0.80600
O211        O  0.11831179  0.42901562  0.17870600    -0.78800
O212        O  0.18522924  0.41435291  0.17872441    -1.15000
O213        O  0.16177132  0.48233064  0.17942455    -0.74200
C214        C  0.17173425  0.48875769  0.15247986     0.96500
C215        C  0.25233017  0.37094685  0.17593982     0.92900
Al216      Al  0.17733575  0.36888639  0.17653904     1.55600
O217        O  0.23152937  0.46669301  0.19010821    -0.78800
C218        C  0.10790551  0.39805138  0.17481913     0.97100
C219        C  0.18885073  0.38533855  0.11364903     0.92000
O220        O  0.21306025  0.40586850  0.12106165    -0.84100
O221        O  0.82553829  0.46629971  0.38242432    -0.83600
C222        C  0.85400866  0.37698834  0.28079942     0.95800
O223        O  0.86991380  0.40456889  0.28800892    -0.72700
O224        O  0.82474390  0.45499159  0.29382146    -0.76300
Al225      Al  0.86109144  0.43921052  0.31893604     1.49000
C226        C  0.79751638  0.46977865  0.30286225     0.91000
O227        O  0.76387065  0.40212690  0.34473423    -0.82500
O228        O  0.84666030  0.36905017  0.38546326    -0.76100
Al229      Al  0.79770669  0.43261113  0.36209603     1.90100
O230        O  0.79389705  0.35398265  0.34665923    -0.75100
O231        O  0.88950819  0.36980789  0.33991882    -0.75000
O232        O  0.83461527  0.36203449  0.29984039    -0.80600
O233        O  0.90022912  0.42577637  0.34237098    -0.78800
O234        O  0.83279907  0.41330581  0.34141745    -1.15000
O235        O  0.85925539  0.47996808  0.34403210    -0.74200
C236        C  0.84680311  0.48669888  0.37010242     0.96500
C237        C  0.76567382  0.36941249  0.34286009     0.92900
Al238      Al  0.84029790  0.36754156  0.34294744     1.55600
O239        O  0.78608791  0.46536337  0.32990974    -0.78800
C240        C  0.90998431  0.39459985  0.34559052     0.97100
C241        C  0.82852995  0.38357402  0.40581728     0.92000
O242        O  0.80405999  0.40398368  0.39852133    -0.84100
O243        O  0.61488348  0.17597482  0.28705352    -0.83600
C244        C  0.64089652  0.21520902  0.40861835     0.95800
O245        O  0.66431157  0.21045926  0.38882850    -0.72700
O246        O  0.65566277  0.14867058  0.36570521    -0.76300
Al247      Al  0.66077032  0.19285694  0.34734976     1.49000
C248        C  0.63923527  0.12319744  0.35492088     0.91000
O249        O  0.56233260  0.15813054  0.35845755    -0.82500
O250        O  0.57741077  0.25251024  0.32285218    -0.76100
Al251      Al  0.59015924  0.16824836  0.32356372     1.90100
O252        O  0.55325399  0.21278334  0.37130851    -0.75100
O253        O  0.63369192  0.26792223  0.35533900    -0.75000
O254        O  0.61076489  0.22317524  0.40045795    -0.80600
O255        O  0.67095541  0.23636194  0.32977363    -0.78800
O256        O  0.61553077  0.19917693  0.34397096    -1.15000
O257        O  0.66707562  0.17385378  0.30641776    -0.74200
C258        C  0.64704351  0.17438976  0.28340506     0.96500
C259        C  0.54498923  0.18085477  0.37278064     0.92900
Al260      Al  0.59552411  0.23623159  0.36110199     1.55600
O261        O  0.61715676  0.12760163  0.33392901    -0.78800
C262        C  0.66103290  0.26555215  0.33966315     0.97100
C263        C  0.55783663  0.23419366  0.30615992     0.92000
O264        O  0.55751334  0.20134050  0.30832161    -0.84100
O265        O  0.61208587  0.87218914  0.23272911    -0.83600
C266        C  0.64052658  0.82915816  0.11252460     0.95800
O267        O  0.66375070  0.83548956  0.13233398    -0.72700
O268        O  0.65709335  0.89720467  0.15720429    -0.76300
Al269      Al  0.66025467  0.85199948  0.17430750     1.49000
C270        C  0.63872099  0.92234425  0.16593683     0.91000
O271        O  0.56127805  0.88470189  0.15966457    -0.82500
O272        O  0.57776757  0.79203928  0.19815701    -0.76100
Al273      Al  0.58820375  0.87681539  0.19529583     1.90100
O274        O  0.55235673  0.82962587  0.14909107    -0.75100
O275        O  0.63376089  0.77645106  0.16546136    -0.75000
O276        O  0.61062469  0.82027418  0.12056366    -0.80600
O277        O  0.67043591  0.80799053  0.19134886    -0.78800
O278        O  0.61482426  0.84561981  0.17651719    -1.15000
O279        O  0.66524270  0.86988522  0.21555958    -0.74200
C280        C  0.64409404  0.87259685  0.23757624     0.96500
C281        C  0.54384284  0.86135034  0.14648864     0.92900
Al282      Al  0.59543134  0.80769814  0.15975687     1.55600
O283        O  0.61361342  0.91741412  0.18371979    -0.78800
C284        C  0.66100659  0.77883905  0.18114147     0.97100
C285        C  0.55748182  0.81046781  0.21402506     0.92000
O286        O  0.55646586  0.84327484  0.21117796    -0.84100
O287        O  0.82568601  0.57775289  0.13860190    -0.83600
C288        C  0.85669212  0.66813968  0.23900147     0.95800
O289        O  0.87245122  0.64045960  0.23177794    -0.72700
O290        O  0.82681482  0.59019763  0.22686938    -0.76300
Al291      Al  0.86276949  0.60551544  0.20115474     1.49000
C292        C  0.79907187  0.57585965  0.21848902     0.91000
O293        O  0.76488463  0.64279879  0.17571748    -0.82500
O294        O  0.84672317  0.67524352  0.13426972    -0.76100
Al295      Al  0.79847455  0.61189958  0.15871122     1.90100
O296        O  0.79496899  0.69085002  0.17414846    -0.75100
O297        O  0.89099119  0.67449558  0.17886902    -0.75000
O298        O  0.83708514  0.68299112  0.22002430    -0.80600
O299        O  0.90161310  0.61844906  0.17707363    -0.78800
O300        O  0.83402246  0.63132822  0.17882412    -1.15000
O301        O  0.86029438  0.56441975  0.17651682    -0.74200
C302        C  0.84711376  0.55744299  0.15078499     0.96500
C303        C  0.76668852  0.67548299  0.17767582     0.92900
Al304      Al  0.84156960  0.67705383  0.17688157     1.55600
O305        O  0.78713367  0.57997910  0.19155042    -0.78800
C306        C  0.91145284  0.64953622  0.17349985     0.97100
C307        C  0.82860585  0.66021802  0.11417246     0.92000
O308        O  0.80449014  0.63964531  0.12182056    -0.84100
O309        O  0.40578213  0.87026091  0.28596241    -0.83600
C310        C  0.38041845  0.83129325  0.40746144     0.95800
O311        O  0.35674256  0.83626644  0.38786315    -0.72700
O312        O  0.36490424  0.89757635  0.36393017    -0.76300
Al313      Al  0.35967488  0.85301344  0.34609334     1.49000
C314        C  0.38182730  0.92285466  0.35354680     0.91000
O315        O  0.45869659  0.88626409  0.35763443    -0.82500
O316        O  0.44121186  0.79211938  0.32139326    -0.76100
Al317      Al  0.43061303  0.87689470  0.32259963     1.90100
O318        O  0.46759852  0.83135165  0.36917097    -0.75100
O319        O  0.38559756  0.77771302  0.35507061    -0.75000
O320        O  0.41033530  0.82278789  0.39914184    -0.80600
O321        O  0.34882535  0.80912910  0.32901864    -0.78800
O322        O  0.40478815  0.84626750  0.34272945    -1.15000
O323        O  0.35339297  0.87135492  0.30489622    -0.74200
C324        C  0.37366203  0.87190990  0.28206751     0.96500
C325        C  0.47622095  0.86314413  0.37115817     0.92900
Al326      Al  0.42445442  0.80892353  0.35978685     1.55600
O327        O  0.40457503  0.91807464  0.33325531    -0.78800
C328        C  0.35812353  0.78005990  0.33955809     0.97100
C329        C  0.46080923  0.81009228  0.30456555     0.92000
O330        O  0.46218177  0.84294032  0.30701157    -0.84100
O331        O  0.19286922  0.57832548  0.38175186    -0.83600
C332        C  0.16414535  0.66852685  0.28135747     0.95800
O333        O  0.14836273  0.64082452  0.28821541    -0.72700
O334        O  0.19392382  0.59085773  0.29323847    -0.76300
Al335      Al  0.15745981  0.60587729  0.31855135     1.49000
C336        C  0.22118577  0.57604807  0.30213480     0.91000
O337        O  0.25454882  0.64329345  0.34512750    -0.82500
O338        O  0.17156185  0.67503890  0.38637322    -0.76100
Al339      Al  0.22076733  0.61227583  0.36193153     1.90100
O340        O  0.22415822  0.69120048  0.34766865    -0.75100
O341        O  0.12841426  0.67464301  0.34077924    -0.75000
O342        O  0.18317746  0.68357839  0.30074982    -0.80600
O343        O  0.11817571  0.61853707  0.34212230    -0.78800
O344        O  0.18556118  0.63167867  0.34150576    -1.15000
O345        O  0.15956443  0.56479123  0.34295405    -0.74200
C346        C  0.17155267  0.55804729  0.36918925     0.96500
C347        C  0.25254844  0.67605976  0.34376626     0.92900
Al348      Al  0.17771074  0.67732332  0.34381319     1.55600
O349        O  0.23249045  0.58004767  0.32930887    -0.78800
C350        C  0.10810190  0.64954960  0.34580069     0.97100
C351        C  0.18993122  0.66029736  0.40642995     0.92000
O352        O  0.21445444  0.64020409  0.39869928    -0.84100
C353        C  0.30420275  0.75367127  0.31881768    -0.15100
C354        C  0.33489106  0.74960895  0.33561175     0.07000
C355        C  0.34049107  0.71806010  0.35146265    -0.15100
C356        C  0.31469032  0.69233709  0.35234909    -0.15100
C357        C  0.28294173  0.69811713  0.33769575     0.07000
C358        C  0.27850544  0.72838687  0.32004553    -0.15100
H359        H  0.29910386  0.77738033  0.30607615     0.11000
H360        H  0.36390592  0.71411865  0.36456612     0.11000
H361        H  0.31860600  0.66918951  0.36616570     0.11000
H362        H  0.25435364  0.73323941  0.30826541     0.11000
C363        C  0.67912717  0.71731432  0.16849033    -0.15100
C364        C  0.68382836  0.74822592  0.18558767     0.07000
C365        C  0.71351436  0.75163806  0.20387632    -0.15100
C366        C  0.73939517  0.72646307  0.20277943    -0.15100
C367        C  0.73599571  0.69703870  0.18378302     0.07000
C368        C  0.70504987  0.69175131  0.16771073    -0.15100
H369        H  0.65649509  0.71391379  0.15420498     0.11000
H370        H  0.71778071  0.77485443  0.21762227     0.11000
H371        H  0.76294632  0.73083230  0.21564112     0.11000
H372        H  0.70200140  0.66924846  0.15283439     0.11000
C373        C  0.47327188  0.79473176  0.25094385    -0.15100
C374        C  0.48338965  0.79388661  0.28187351     0.07000
C375        C  0.51826813  0.78946816  0.28936788    -0.15100
C376        C  0.54321929  0.78986438  0.26619932    -0.15100
C377        C  0.53324105  0.79470340  0.23550973     0.07000
C378        C  0.49816668  0.79521408  0.22782027    -0.15100
H379        H  0.44659855  0.79914543  0.24490852     0.11000
H380        H  0.52647341  0.78986885  0.31324673     0.11000
H381        H  0.57016403  0.79047044  0.27249712     0.11000
H382        H  0.49018113  0.79990235  0.20425200     0.11000
C383        C  0.70363940  0.35360741  0.35134044    -0.15100
C384        C  0.73519578  0.34774938  0.33646783     0.07000
C385        C  0.73946791  0.31755913  0.31858780    -0.15100
C386        C  0.71387992  0.29220998  0.31759873    -0.15100
C387        C  0.68355732  0.29621303  0.33487063     0.07000
C388        C  0.67794908  0.32783528  0.35067678    -0.15100
H389        H  0.69990390  0.37674572  0.36529751     0.11000
H390        H  0.76349961  0.31271878  0.30662735     0.11000
H391        H  0.71889263  0.26843273  0.30483170     0.11000
H392        H  0.65476229  0.33170002  0.36409378     0.11000
C393        C  0.77892251  0.48892360  0.25092361    -0.15100
C394        C  0.78228748  0.49607058  0.28247929     0.07000
C395        C  0.78162965  0.53080440  0.29268141    -0.15100
C396        C  0.78278853  0.55799311  0.27134850    -0.15100
C397        C  0.78341217  0.55067408  0.23968626     0.07000
C398        C  0.77884132  0.51618336  0.22960055    -0.15100
H399        H  0.77989662  0.46222172  0.24263359     0.11000
H400        H  0.78488314  0.53682179  0.31688992     0.11000
H401        H  0.78669149  0.58444747  0.27953584     0.11000
H402        H  0.77981982  0.50997253  0.20529054     0.11000
C403        C  0.23888704  0.48824902  0.27034801    -0.15100
C404        C  0.23710896  0.49526002  0.23869290     0.07000
C405        C  0.23974156  0.52986539  0.22848851    -0.15100
C406        C  0.23887522  0.55724878  0.24978099    -0.15100
C407        C  0.23666993  0.55019435  0.28139590     0.07000
C408        C  0.23922333  0.51561658  0.29163027    -0.15100
H409        H  0.23642250  0.46168822  0.27865839     0.11000
H410        H  0.23782884  0.53584272  0.20423266     0.11000
H411        H  0.23646198  0.58382146  0.24147250     0.11000
H412        H  0.23688708  0.50964093  0.31586175     0.11000
C413        C  0.30615284  0.29563073  0.20268973    -0.15100
C414        C  0.33557504  0.29863629  0.18409441     0.07000
C415        C  0.33986939  0.32903893  0.16633551    -0.15100
C416        C  0.31383679  0.35449489  0.16534995    -0.15100
C417        C  0.28318983  0.34959320  0.18188526     0.07000
C418        C  0.28018697  0.32069080  0.20141412    -0.15100
H419        H  0.30218015  0.27281080  0.21690117     0.11000
H420        H  0.36227186  0.33209674  0.15176321     0.11000
H421        H  0.31656874  0.37658049  0.15004975     0.11000
H422        H  0.25686854  0.31662745  0.21462600     0.11000
C423        C  0.52005538  0.25542739  0.22989775    -0.15100
C424        C  0.48488096  0.25221360  0.23673679     0.07000
C425        C  0.47428146  0.25154074  0.26755353    -0.15100
C426        C  0.49876535  0.25035259  0.29114341    -0.15100
C427        C  0.53401552  0.25004824  0.28410424     0.07000
C428        C  0.54456964  0.25439974  0.25351852    -0.15100
H429        H  0.52870367  0.25474504  0.20619328     0.11000
H430        H  0.44736711  0.24787578  0.27317121     0.11000
H431        H  0.49024374  0.24595360  0.31455793     0.11000
H432        H  0.57162977  0.25311489  0.24764792     0.11000
C433        C  0.65699682  0.05106401  0.41142664    -0.15100
C434        C  0.66122762  0.02206502  0.39195043     0.07000
C435        C  0.65740132  0.02633541  0.36003020    -0.15100
C436        C  0.64919241  0.05912045  0.34780710    -0.15100
C437        C  0.64590729  0.08817669  0.36733561     0.07000
C438        C  0.64991453  0.08389402  0.39916919    -0.15100
H439        H  0.66007926  0.04850648  0.43606324     0.11000
H440        H  0.66057002  0.00427134  0.34458394     0.11000
H441        H  0.64634854  0.06201793  0.32319269     0.11000
H442        H  0.64736360  0.10604620  0.41463002     0.11000
C443        C  0.68695096  0.84698290  0.03768081    -0.15100
C444        C  0.65912659  0.85697003  0.01907037     0.07000
C445        C  0.62544384  0.85384109  0.03014887    -0.15100
C446        C  0.61956152  0.84227822  0.05998065    -0.15100
C447        C  0.64735387  0.83461968  0.07957651     0.07000
C448        C  0.68112330  0.83630152  0.06803827    -0.15100
H449        H  0.71314248  0.84938186  0.52933682     0.11000
H450        H  0.60371679  0.86131560  0.01594312     0.11000
H451        H  0.59324931  0.84138623  0.06827094     0.11000
H452        H  0.70290919  0.83048426  0.08273059     0.11000
C453        C  0.64561453  0.86852197  0.32419061    -0.15100
C454        C  0.67841570  0.88179170  0.33137241     0.07000
C455        C  0.70036719  0.89182012  0.30725889    -0.15100
C456        C  0.68962833  0.88842457  0.27652871    -0.15100
C457        C  0.65652124  0.87572929  0.26960083     0.07000
C458        C  0.63474080  0.86577202  0.29375845    -0.15100
H459        H  0.62787922  0.86089289  0.34218995     0.11000
H460        H  0.72569227  0.90230907  0.31215627     0.11000
H461        H  0.70687032  0.89631449  0.25826038     0.11000
H462        H  0.60919327  0.85564196  0.28913143     0.11000
C463        C  0.55012976  0.91570983  0.40550142    -0.15100
C464        C  0.57237150  0.88895773  0.41527697     0.07000
C465        C  0.56144055  0.85414393  0.41247181    -0.15100
C466        C  0.52975663  0.84609971  0.39914785    -0.15100
C467        C  0.50808160  0.87260218  0.38809814     0.07000
C468        C  0.51826220  0.90759636  0.39193650    -0.15100
H469        H  0.55781487  0.94278963  0.40740741     0.11000
H470        H  0.57778316  0.83287093  0.41987997     0.11000
H471        H  0.52275045  0.81888864  0.39666575     0.11000
H472        H  0.50202168  0.92859916  0.38380849     0.11000
C473        C  0.02856411  0.69971166  0.36924747    -0.15100
C474        C  0.00826619  0.67360016  0.38274484     0.07000
C475        C  0.01986091  0.63883657  0.38177893    -0.15100
C476        C  0.05180471  0.63064263  0.36868134    -0.15100
C477        C  0.07273115  0.65709109  0.35647215     0.07000
C478        C  0.06043869  0.69156826  0.35632913    -0.15100
H479        H  0.02030356  0.72670370  0.36944421     0.11000
H480        H  0.00473171  0.61813665  0.39190689     0.11000
H481        H  0.06062302  0.60383110  0.36908369     0.11000
H482        H  0.07582881  0.71248377  0.34686796     0.11000
C483        C  0.84075828  0.82862704  0.41846515    -0.15100
C484        C  0.83523421  0.79701237  0.43421628     0.07000
C485        C  0.80449263  0.79279990  0.45082190    -0.15100
C486        C  0.77860958  0.81785929  0.44936796    -0.15100
C487        C  0.78288179  0.84810869  0.43171320     0.07000
C488        C  0.81473087  0.85418893  0.41737635    -0.15100
H489        H  0.86426091  0.83270988  0.40557251     0.11000
H490        H  0.79945916  0.76908252  0.46354791     0.11000
H491        H  0.75443612  0.81283184  0.46099916     0.11000
H492        H  0.81856954  0.87741346  0.40366464     0.11000
C493        C  0.88085212  0.68364078  0.04425849    -0.15100
C494        C  0.86017952  0.67163953  0.02000647     0.07000
C495        C  0.82762148  0.65742000  0.02659191    -0.15100
C496        C  0.81657931  0.65413086  0.05722455    -0.15100
C497        C  0.83765064  0.66581045  0.08148949     0.07000
C498        C  0.86965169  0.68102365  0.07452657    -0.15100
H499        H  0.90587147  0.69504786  0.03983197     0.11000
H500        H  0.81124100  0.64801742  0.50818557     0.11000
H501        H  0.79188908  0.64215071  0.06193574     0.11000
H502        H  0.88672724  0.69007099  0.09259424     0.11000
C503        C  0.84051640  0.70628774  0.31783189    -0.15100
C504        C  0.87407714  0.70688448  0.32995882     0.07000
C505        C  0.90184235  0.69695456  0.31114161    -0.15100
C506        C  0.89600108  0.68486181  0.28134437    -0.15100
C507        C  0.86247141  0.68344550  0.26951307     0.07000
C508        C  0.83479480  0.69513985  0.28754308    -0.15100
H509        H  0.81869671  0.71372777  0.33197315     0.11000
H510        H  0.92792961  0.69685762  0.31996902     0.11000
H511        H  0.91769519  0.67613266  0.26758882     0.11000
H512        H  0.80874735  0.69413804  0.27868033     0.11000
C513        C  0.83819381  0.57523873  0.40733748    -0.15100
C514        C  0.87246614  0.58689883  0.40744159     0.07000
C515        C  0.89860240  0.56449328  0.39702904    -0.15100
C516        C  0.89036097  0.53142120  0.38542449    -0.15100
C517        C  0.85605946  0.51980930  0.38524517     0.07000
C518        C  0.83012044  0.54169637  0.39681788    -0.15100
H519        H  0.81768623  0.59215299  0.41536474     0.11000
H520        H  0.92518008  0.57310448  0.39681813     0.11000
H521        H  0.91069055  0.51497813  0.37632931     0.11000
H522        H  0.80344492  0.53340317  0.39643421     0.11000
C523        C  0.02763522  0.34820778  0.15328705    -0.15100
C524        C  0.00769484  0.37383668  0.13863762     0.07000
C525        C  0.01957853  0.40852316  0.13849269    -0.15100
C526        C  0.05161550  0.41695353  0.15143931    -0.15100
C527        C  0.07228464  0.39080497  0.16457223     0.07000
C528        C  0.05954292  0.35655959  0.16601202    -0.15100
H529        H  0.01913060  0.32131714  0.15406116     0.11000
H530        H  0.00469509  0.42887314  0.12750418     0.11000
H531        H  0.06077315  0.44359289  0.15008300     0.11000
H532        H  0.07465401  0.33590441  0.17629619     0.11000
C533        C  0.88223963  0.36197995  0.47545121    -0.15100
C534        C  0.86071332  0.37181971  0.99986182     0.07000
C535        C  0.82715938  0.38364071  0.99335839    -0.15100
C536        C  0.81596470  0.38692997  0.46275962    -0.15100
C537        C  0.83792778  0.37765792  0.43838135     0.07000
C538        C  0.87093233  0.36461061  0.44517049    -0.15100
H539        H  0.90806792  0.35237471  0.47974272     0.11000
H540        H  0.81000743  0.39122649  0.01184245     0.11000
H541        H  0.79041782  0.39706137  0.45816161     0.11000
H542        H  0.88864814  0.35742224  0.42696474     0.11000
C543        C  0.83872167  0.33939450  0.20161157    -0.15100
C544        C  0.87256471  0.33854506  0.19013403     0.07000
C545        C  0.89998631  0.34814131  0.20947222    -0.15100
C546        C  0.89366861  0.36005461  0.23916895    -0.15100
C547        C  0.85993084  0.36170916  0.25038506     0.07000
C548        C  0.83249130  0.35044779  0.23184881    -0.15100
H549        H  0.81719675  0.33224004  0.18707020     0.11000
H550        H  0.92631655  0.34805371  0.20116687     0.11000
H551        H  0.91511515  0.36846202  0.25330682     0.11000
H552        H  0.80624404  0.35169258  0.24028866     0.11000
C553        C  0.89766364  0.48226709  0.11725040    -0.15100
C554        C  0.87158115  0.45732780  0.11297772     0.07000
C555        C  0.83733318  0.46630098  0.11980006    -0.15100
C556        C  0.82928932  0.49963012  0.13073679    -0.15100
C557        C  0.85547311  0.52411178  0.13587556     0.07000
C558        C  0.88972000  0.51526868  0.12918329    -0.15100
H559        H  0.92428074  0.47580662  0.11235153     0.11000
H560        H  0.81679845  0.44748796  0.11668546     0.11000
H561        H  0.80278357  0.50591960  0.13627687     0.11000
H562        H  0.91024019  0.53383245  0.13335921     0.11000
C563        C  0.73973280  0.01493800  0.04354794    -0.15100
C564        C  0.73728764  0.04941643  0.03297282     0.07000
C565        C  0.73945427  0.05598589  0.00127047    -0.15100
C566        C  0.74002456  0.02829759  0.48027619    -0.15100
C567        C  0.73715778  0.99383339  0.49079996     0.07000
C568        C  0.73907812  0.98723789  0.02253839    -0.15100
H569        H  0.73756944  0.00930551  0.06787928     0.11000
H570        H  0.73723359  0.08241439  0.49268338     0.11000
H571        H  0.73807201  0.03400954  0.45593960     0.11000
H572        H  0.73659540  0.96083151  0.03111724     0.11000
C573        C  0.62857409  0.01413431  0.13526297    -0.15100
C574        C  0.66296625  0.02532727  0.13407045     0.07000
C575        C  0.68920407  0.00279262  0.14396173    -0.15100
C576        C  0.68127692  0.96914154  0.15409970    -0.15100
C577        C  0.64689279  0.95795938  0.15549497     0.07000
C578        C  0.62053116  0.98090902  0.14651060    -0.15100
H579        H  0.60803400  0.03106628  0.12739265     0.11000
H580        H  0.71593989  0.01077637  0.14269003     0.11000
H581        H  0.70197188  0.95185584  0.16098701     0.11000
H582        H  0.59383816  0.97269286  0.14728077     0.11000
C583        C  0.81628363  0.19136854  0.10460405    -0.15100
C584        C  0.78519008  0.19661785  0.08874505     0.07000
C585        C  0.78159515  0.22581372  0.06967474    -0.15100
C586        C  0.80745783  0.25080435  0.06818745    -0.15100
C587        C  0.83734780  0.24752040  0.08620682     0.07000
C588        C  0.84224226  0.21685258  0.10347432    -0.15100
H589        H  0.81943988  0.16900348  0.11953062     0.11000
H590        H  0.75790046  0.23015927  0.05702114     0.11000
H591        H  0.80297834  0.27383943  0.05434749     0.11000
H592        H  0.86505371  0.21359326  0.11754428     0.11000
C593        C  0.62055118  0.19895513  0.46060264    -0.15100
C594        C  0.64793352  0.20884776  0.44145876     0.07000
C595        C  0.68171148  0.20860415  0.45324187    -0.15100
C596        C  0.68791189  0.19766810  0.98352240    -0.15100
C597        C  0.66053384  0.18588314  0.00179143     0.07000
C598        C  0.62684894  0.18714996  0.49031178    -0.15100
H599        H  0.59428258  0.19854868  0.45206884     0.11000
H600        H  0.70322090  0.21599842  0.43886457     0.11000
H601        H  0.71413205  0.19676450  0.99213325     0.11000
H602        H  0.60543347  0.17834716  0.50420462     0.11000
C603        C  0.65170553  0.18445944  0.19737876    -0.15100
C604        C  0.68307035  0.16806808  0.19009195     0.07000
C605        C  0.70401891  0.15574066  0.21416927    -0.15100
C606        C  0.69309769  0.15873473  0.24487292    -0.15100
C607        C  0.66078436  0.17340683  0.25173859     0.07000
C608        C  0.64062448  0.18685259  0.22773081    -0.15100
H609        H  0.63489148  0.19433646  0.17948053     0.11000
H610        H  0.72839318  0.14312101  0.20923048     0.11000
H611        H  0.70923156  0.14848015  0.26306215     0.11000
H612        H  0.61589392  0.19888376  0.23238094     0.11000
C613        C  0.55134512  0.13317140  0.11469283    -0.15100
C614        C  0.57363980  0.15973930  0.10484857     0.07000
C615        C  0.56211006  0.19450429  0.10573994    -0.15100
C616        C  0.52967677  0.20269596  0.11760099    -0.15100
C617        C  0.50809597  0.17633965  0.12900683     0.07000
C618        C  0.51890286  0.14139437  0.12672893    -0.15100
H619        H  0.55943949  0.10612954  0.11414061     0.11000
H620        H  0.57852772  0.21554647  0.09804336     0.11000
H621        H  0.52207140  0.22984879  0.11888542     0.11000
H622        H  0.50278273  0.12049172  0.13517746     0.11000
C623        C  0.39119016  0.03361071  0.13325355    -0.15100
C624        C  0.35697194  0.02184455  0.13305577     0.07000
C625        C  0.33091478  0.04335906  0.14496298    -0.15100
C626        C  0.33880234  0.07676917  0.15583897    -0.15100
C627        C  0.37299585  0.08861572  0.15591331     0.07000
C628        C  0.39925000  0.06653805  0.14519092    -0.15100
H629        H  0.41159221  0.01738150  0.12399997     0.11000
H630        H  0.30431650  0.03485786  0.14464902     0.11000
H631        H  0.31822763  0.09342024  0.16415333     0.11000
H632        H  0.42576577  0.07530156  0.14500290     0.11000
C633        C  0.33430047  0.84902859  0.48248446    -0.15100
C634        C  0.36176977  0.86110119  0.00056511     0.07000
C635        C  0.39539394  0.85986810  0.98900071    -0.15100
C636        C  0.40148326  0.84786712  0.45926987    -0.15100
C637        C  0.37388927  0.83781516  0.44029954     0.07000
C638        C  0.34027066  0.83792814  0.45224537    -0.15100
H639        H  0.30818424  0.84986629  0.49120455     0.11000
H640        H  0.41690082  0.86886148  0.00283152     0.11000
H641        H  0.42762860  0.84827045  0.45057980     0.11000
H642        H  0.31862789  0.83031086  0.43798185     0.11000
C643        C  0.31717598  0.89236114  0.21265172    -0.15100
C644        C  0.33837216  0.88072849  0.18845551     0.07000
C645        C  0.37016613  0.86514388  0.19564051    -0.15100
C646        C  0.38106117  0.86216807  0.22601452    -0.15100
C647        C  0.36033312  0.87421212  0.25023434     0.07000
C648        C  0.32793864  0.88876425  0.24340268    -0.15100
H649        H  0.29259954  0.90456264  0.20779929     0.11000
H650        H  0.38732201  0.85605403  0.17767195     0.11000
H651        H  0.40599318  0.85055916  0.23052346     0.11000
H652        H  0.31147449  0.89822528  0.26171098     0.11000
C653        C  0.45802929  0.85313105  0.10620373    -0.15100
C654        C  0.44719920  0.88808837  0.10453685     0.07000
C655        C  0.46986331  0.91450892  0.11413181    -0.15100
C656        C  0.50202100  0.90595724  0.12664243    -0.15100
C657        C  0.51207566  0.87084786  0.12965694     0.07000
C658        C  0.49009891  0.84462016  0.11856639    -0.15100
H659        H  0.44131097  0.83216184  0.09875157     0.11000
H660        H  0.46228914  0.94167379  0.11297301     0.11000
H661        H  0.51851656  0.92675500  0.13482961     0.11000
H662        H  0.49711660  0.81735584  0.12044132     0.11000
C663        C  0.00081427  0.75567962  0.04154089    -0.15100
C664        C  0.03571775  0.75250915  0.03366935     0.07000
C665        C  0.04537518  0.75279622  0.00262953    -0.15100
C666        C  0.02015357  0.75238126  0.47968256    -0.15100
C667        C  0.98515166  0.75169625  0.48763976     0.07000
C668        C  0.97554722  0.75522281  0.01857052    -0.15100
H669        H  0.99295755  0.75436901  0.06544126     0.11000
H670        H  0.07209294  0.74925106  0.49623769     0.11000
H671        H  0.02792951  0.74858526  0.45595938     0.11000
H672        H  0.94871165  0.75361577  0.02510761     0.11000
C673        C  0.99072852  0.70019871  0.15007304    -0.15100
C674        C  0.01202929  0.67395043  0.13787930     0.07000
C675        C  0.00087698  0.63907716  0.13926508    -0.15100
C676        C  0.96859125  0.63083740  0.15169047    -0.15100
C677        C  0.94682728  0.65733948  0.16281003     0.07000
C678        C  0.95852431  0.69201367  0.16229725    -0.15100
H679        H  0.99849753  0.72730629  0.14940983     0.11000
H680        H  0.01669967  0.61827355  0.13006416     0.11000
H681        H  0.96028348  0.60388027  0.15178237     0.11000
H682        H  0.94249763  0.71302960  0.17082508     0.11000
C683        C  0.21386010  0.79459318  0.06719048    -0.15100
C684        C  0.18453851  0.79768412  0.08593956     0.07000
C685        C  0.18010207  0.82828476  0.10351378    -0.15100
C686        C  0.20583931  0.85400003  0.10404274    -0.15100
C687        C  0.23633163  0.84914902  0.08725368     0.07000
C688        C  0.23955991  0.81989651  0.06804868    -0.15100
H689        H  0.21796659  0.77157806  0.05314352     0.11000
H690        H  0.15780038  0.83137343  0.11822220     0.11000
H691        H  0.20303328  0.87630465  0.11918566     0.11000
H692        H  0.26284050  0.81580542  0.05476391     0.11000
C693        C  0.20169118  0.65278424  0.46318502    -0.15100
C694        C  0.18104489  0.66577508  0.43917262     0.07000
C695        C  0.14973564  0.68226772  0.44646140    -0.15100
C696        C  0.13888548  0.68506877  0.47682736    -0.15100
C697        C  0.15922886  0.67195245  0.00083398     0.07000
C698        C  0.19100026  0.65619185  0.99390237    -0.15100
H699        H  0.22579670  0.63968980  0.45820948     0.11000
H700        H  0.13298972  0.69231021  0.42859313     0.11000
H701        H  0.11438318  0.69754232  0.48152831     0.11000
H702        H  0.20702729  0.64576112  0.01209759     0.11000
C703        C  0.18052298  0.70846640  0.20329979    -0.15100
C704        C  0.14733256  0.70684329  0.19042140     0.07000
C705        C  0.11992250  0.69420943  0.20822109    -0.15100
C706        C  0.12562680  0.68229406  0.23795383    -0.15100
C707        C  0.15869183  0.68356490  0.25078778     0.07000
C708        C  0.18605548  0.69739795  0.23363140    -0.15100
H709        H  0.20203284  0.71784695  0.18986527     0.11000
H710        H  0.09415798  0.69215135  0.19868364     0.11000
H711        H  0.10423011  0.67175393  0.25088826     0.11000
H712        H  0.21183645  0.69831007  0.24324728     0.11000
C713        C  0.16602698  0.55267717  0.15801411    -0.15100
C714        C  0.16375906  0.52302143  0.13915331     0.07000
C715        C  0.15382122  0.52671198  0.10826211    -0.15100
C716        C  0.14529120  0.55973202  0.09668205    -0.15100
C717        C  0.14781651  0.58939671  0.11563263     0.07000
C718        C  0.15862913  0.58559854  0.14625314    -0.15100
H719        H  0.17396366  0.55038567  0.18185557     0.11000
H720        H  0.15200183  0.50405806  0.09338724     0.11000
H721        H  0.13728434  0.56221039  0.07289135     0.11000
H722        H  0.16080676  0.60811236  0.16127258     0.11000
C723        C  0.36551959  0.02034645  0.35837788    -0.15100
C724        C  0.35879442  0.02436443  0.38996688     0.07000
C725        C  0.36045295  0.99507395  0.40923934    -0.15100
C726        C  0.36792734  0.96221034  0.39717407    -0.15100
C727        C  0.37490234  0.95807690  0.36572089     0.07000
C728        C  0.37413626  0.98742865  0.34640360    -0.15100
H729        H  0.36441811  0.04262403  0.34313639     0.11000
H730        H  0.35512705  0.99747273  0.43364848     0.11000
H731        H  0.36847191  0.93995001  0.41248516     0.11000
H732        H  0.37929163  0.98470098  0.32200235     0.11000
C733        C  0.27984499  0.03097483  0.04082209    -0.15100
C734        C  0.28334495  0.99653653  0.03024806     0.07000
C735        C  0.28180867  0.98981305  0.99849985    -0.15100
C736        C  0.28071703  0.01741352  0.47752179    -0.15100
C737        C  0.28244666  0.05198663  0.48813679     0.07000
C738        C  0.27997048  0.05859947  0.01986076    -0.15100
H739        H  0.28155711  0.03675660  0.06517554     0.11000
H740        H  0.28486476  0.96339890  0.98989729     0.11000
H741        H  0.28318871  0.01170221  0.45321375     0.11000
H742        H  0.28169646  0.08511139  0.02852606     0.11000
C743        C  0.39167750  0.19906700  0.02785255    -0.15100
C744        C  0.35885235  0.18830823  0.01867361     0.07000
C745        C  0.33122424  0.19025633  0.03929941    -0.15100
C746        C  0.33693528  0.20108803  0.06964260    -0.15100
C747        C  0.37024634  0.21055798  0.07934257     0.07000
C748        C  0.39729298  0.21050274  0.05784877    -0.15100
H749        H  0.41318302  0.19760006  0.01200133     0.11000
H750        H  0.30576956  0.18169834  0.03238123     0.11000
H751        H  0.31565790  0.20075121  0.08575177     0.11000
H752        H  0.42325147  0.21752018  0.06459136     0.11000
C753        C  0.37563544  0.17889769  0.32373068    -0.15100
C754        C  0.34299308  0.16526686  0.33080795     0.07000
C755        C  0.32098694  0.15510941  0.30672596    -0.15100
C756        C  0.33154934  0.15864013  0.27607495    -0.15100
C757        C  0.36450774  0.17163860  0.26924731     0.07000
C758        C  0.38634912  0.18179789  0.29334271    -0.15100
H759        H  0.39337579  0.18668084  0.34175765     0.11000
H760        H  0.29577293  0.14434443  0.31158470     0.11000
H761        H  0.31432258  0.15058798  0.25778485     0.11000
H762        H  0.41177605  0.19212358  0.28869386     0.11000
C763        C  0.46336854  0.18846264  0.41969866    -0.15100
C764        C  0.44901749  0.15502900  0.41657476     0.07000
C765        C  0.46815422  0.12892541  0.40154159    -0.15100
C766        C  0.50016906  0.13676393  0.38830989    -0.15100
C767        C  0.51362001  0.17079705  0.39006570     0.07000
C768        C  0.49530894  0.19620976  0.40672059    -0.15100
H769        H  0.44943615  0.20899068  0.43147886     0.11000
H770        H  0.45768542  0.10292397  0.39877965     0.11000
H771        H  0.51370534  0.11658868  0.37572728     0.11000
H772        H  0.50508999  0.22255489  0.40885882     0.11000
C773        C  0.95577624  0.35158548  0.35916072    -0.15100
C774        C  0.94516806  0.38651040  0.35643950     0.07000
C775        C  0.96773473  0.41314960  0.36575799    -0.15100
C776        C  0.99981684  0.40492805  0.37854042    -0.15100
C777        C  0.00991053  0.36992583  0.38210907     0.07000
C778        C  0.98779601  0.34339855  0.37178729    -0.15100
H779        H  0.93901643  0.33045027  0.35217280     0.11000
H780        H  0.96025187  0.44029059  0.36393240     0.11000
H781        H  0.01636533  0.42591919  0.38623743     0.11000
H782        H  0.99477027  0.31618839  0.37428376     0.11000
C783        C  0.04509257  0.29002862  0.01758015    -0.15100
C784        C  0.03487084  0.29230313  0.48671248     0.07000
C785        C  0.99971682  0.29093880  0.47927408    -0.15100
C786        C  0.97496378  0.29129835  0.00258623    -0.15100
C787        C  0.98523828  0.29301266  0.03345743     0.07000
C788        C  0.02031608  0.29040519  0.04091416    -0.15100
H789        H  0.07207655  0.29216730  0.02370917     0.11000
H790        H  0.99143817  0.29378366  0.45558893     0.11000
H791        H  0.94805321  0.29435102  0.49647280     0.11000
H792        H  0.02864180  0.29274342  0.06463881     0.11000
C793        C  0.21621929  0.25415854  0.44956376    -0.15100
C794        C  0.18565055  0.24991387  0.43261001     0.07000
C795        C  0.18075179  0.21869482  0.41597637    -0.15100
C796        C  0.20698848  0.19341283  0.41469801    -0.15100
C797        C  0.23850559  0.19932128  0.42971493     0.07000
C798        C  0.24238272  0.22933433  0.44790723    -0.15100
H799        H  0.22079562  0.27764652  0.46285902     0.11000
H800        H  0.15748733  0.21466496  0.40266645     0.11000
H801        H  0.20352301  0.17045250  0.40045681     0.11000
H802        H  0.26635507  0.23424698  0.45997237     0.11000
C803        C  0.13790329  0.35908425  0.04346077    -0.15100
C804        C  0.15710088  0.37394170  0.01956974     0.07000
C805        C  0.18828904  0.39082844  0.02641355    -0.15100
C806        C  0.19939883  0.39391425  0.05700143    -0.15100
C807        C  0.17980542  0.37947699  0.08099343     0.07000
C808        C  0.14924570  0.36153772  0.07376574    -0.15100
H809        H  0.11394560  0.34556612  0.03868626     0.11000
H810        H  0.20345903  0.40247960  0.50825302     0.11000
H811        H  0.22292939  0.40807933  0.06191619     0.11000
H812        H  0.13340852  0.35022170  0.09165316     0.11000
C813        C  0.11801538  0.35032960  0.31110742    -0.15100
C814        C  0.14544920  0.33877234  0.32952693     0.07000
C815        C  0.17881871  0.33739112  0.31708972    -0.15100
C816        C  0.18468096  0.34819714  0.28677240    -0.15100
C817        C  0.15740617  0.36152092  0.26913532     0.07000
C818        C  0.12403798  0.36205139  0.28133938    -0.15100
H819        H  0.09210996  0.35199078  0.32025593     0.11000
H820        H  0.20033470  0.32863588  0.33097835     0.11000
H821        H  0.21062457  0.34774005  0.27762786     0.11000
H822        H  0.10266354  0.37211941  0.26794622     0.11000
C823        C  0.11970684  0.47845384  0.39142740    -0.15100
C824        C  0.14431667  0.45890489  0.40754024     0.07000
C825        C  0.17712312  0.47305852  0.41278919    -0.15100
C826        C  0.18540532  0.50626639  0.40174538    -0.15100
C827        C  0.16134932  0.52526009  0.38439722     0.07000
C828        C  0.12834397  0.51118238  0.37949212    -0.15100
H829        H  0.09430896  0.46779311  0.38706409     0.11000
H830        H  0.19638955  0.45824015  0.42521998     0.11000
H831        H  0.21109595  0.51643886  0.40556246     0.11000
H832        H  0.10940082  0.52535579  0.36611494     0.11000
O833        O  0.11189186  0.37086718  0.98360235    -0.83600
C834        C  0.13902443  0.33188708  0.86228486     0.95800
O835        O  0.16250368  0.33758049  0.88196934    -0.72700
O836        O  0.15507825  0.39851143  0.90794355    -0.76300
Al837      Al  0.15931963  0.35311173  0.92417319     1.49000
C838        C  0.13655982  0.42313563  0.91745904     0.91000
O839        O  0.05937973  0.38430783  0.91162117    -0.82500
O840        O  0.07831613  0.29095404  0.94799518    -0.76100
Al841      Al  0.08723320  0.37608893  0.94665398     1.90100
O842        O  0.05141188  0.32929332  0.90016979    -0.75100
O843        O  0.13430776  0.27740262  0.91393543    -0.75000
O844        O  0.10931739  0.32235437  0.87039307    -0.80600
O845        O  0.17049890  0.30897097  0.94031736    -0.78800
O846        O  0.11404809  0.34587626  0.92688111    -1.15000
O847        O  0.16470747  0.37021939  0.96548807    -0.74200
C848        C  0.14397493  0.37173574  0.98785885     0.96500
C849        C  0.04214855  0.36085588  0.89834487     0.92900
Al850      Al  0.09509690  0.30806457  0.90958694     1.55600
O851        O  0.11177088  0.41750100  0.93544851    -0.78800
C852        C  0.16177892  0.27996204  0.92932217     0.97100
C853        C  0.05817057  0.30870764  0.96467401     0.92000
O854        O  0.05652479  0.34154793  0.96238964    -0.84100
O855        O  0.33120514  0.07982077  0.88862756    -0.83600
C856        C  0.35469810  0.17186499  0.98864645     0.95800
O857        O  0.37056720  0.14376186  0.98321742    -0.72700
O858        O  0.32332650  0.09516957  0.97797426    -0.76300
Al859      Al  0.36157717  0.10761082  0.95366727     1.49000
C860        C  0.29769611  0.07845825  0.96784256     0.91000
O861        O  0.26701983  0.14439237  0.92326772    -0.82500
O862        O  0.35201465  0.17453244  0.88359015    -0.76100
Al863      Al  0.30137733  0.11330342  0.90742494     1.90100
O864        O  0.29750826  0.19233561  0.92014278    -0.75100
O865        O  0.39325005  0.17456304  0.93046698    -0.75000
O866        O  0.33671216  0.18628704  0.96824009    -0.80600
O867        O  0.40225825  0.11806536  0.93095577    -0.78800
O868        O  0.33541420  0.13304931  0.92889330    -1.15000
O869        O  0.35874146  0.06519761  0.93059806    -0.74200
C870        C  0.34950564  0.05846453  0.90340296     0.96500
C871        C  0.26902703  0.17723702  0.92405616     0.92900
Al872      Al  0.34398650  0.17831144  0.92574906     1.55600
O873        O  0.28854038  0.08091141  0.93984361    -0.78800
C874        C  0.41315594  0.14871439  0.92666461     0.97100
C875        C  0.33360104  0.16020117  0.86335909     0.92000
O876        O  0.30838708  0.14101093  0.87081662    -0.84100
O877        O  0.11423714  0.67611482  0.53674203    -0.83600
C878        C  0.14088047  0.71493041  0.65786699     0.95800
O879        O  0.16459068  0.71131672  0.63809645    -0.72700
O880        O  0.15680884  0.64996413  0.61404319    -0.76300
Al881      Al  0.16109345  0.69435921  0.59626999     1.49000
C882        C  0.13990306  0.62449029  0.60390740     0.91000
O883        O  0.06219962  0.66045429  0.60859595    -0.82500
O884        O  0.07873752  0.75460335  0.57268961    -0.76100
Al885      Al  0.08993124  0.66974271  0.57351142     1.90100
O886        O  0.05304594  0.71528297  0.62029620    -0.75100
O887        O  0.13477329  0.76904910  0.60622615    -0.75000
O888        O  0.11080372  0.72333691  0.64986698    -0.80600
O889        O  0.17095247  0.73819720  0.57896296    -0.78800
O890        O  0.11580698  0.70057679  0.59341452    -1.15000
O891        O  0.16688861  0.67573097  0.55520175    -0.74200
C892        C  0.14628873  0.67459754  0.53262501     0.96500
C893        C  0.04437069  0.68351995  0.62190141     0.92900
Al894      Al  0.09611060  0.73769682  0.61087791     1.55600
O895        O  0.11639199  0.62893204  0.58420717    -0.78800
C896        C  0.16174414  0.76706380  0.59004140     0.97100
C897        C  0.05906726  0.73646556  0.55588554     0.92000
O898        O  0.05812776  0.70356913  0.55806021    -0.84100
O899        O  0.32659698  0.96848421  0.63057886    -0.83600
C900        C  0.35576531  0.87708012  0.53068529     0.95800
O901        O  0.37129389  0.90507091  0.53726704    -0.72700
O902        O  0.32605638  0.95570230  0.54223578    -0.76300
Al903      Al  0.36246345  0.94032971  0.56762893     1.49000
C904        C  0.29876243  0.97059191  0.55100678     0.91000
O905        O  0.26516540  0.90357966  0.59413095    -0.82500
O906        O  0.34781844  0.87161559  0.63558559    -0.76100
Al907      Al  0.29893269  0.93448242  0.61085988     1.90100
O908        O  0.29523724  0.85548816  0.59668396    -0.75100
O909        O  0.39089696  0.87140999  0.59005232    -0.75000
O910        O  0.33641355  0.86249835  0.54998946    -0.80600
O911        O  0.40188103  0.92737819  0.59107543    -0.78800
O912        O  0.33415414  0.91481094  0.59055932    -1.15000
O913        O  0.36057620  0.98153422  0.59218946    -0.74200
C914        C  0.34791586  0.98864846  0.61810962     0.96500
C915        C  0.26695975  0.87083577  0.59289401     0.92900
Al916      Al  0.34172451  0.86911278  0.59298751     1.55600
O917        O  0.28728034  0.96650814  0.57808197    -0.78800
C918        C  0.41165436  0.89623886  0.59461257     0.97100
C919        C  0.32952309  0.88646643  0.65565920     0.92000
O920        O  0.30519954  0.90681104  0.64788297    -0.84100
O921        O  0.69304881  0.07904031  0.63269874    -0.83600
C922        C  0.66640790  0.17004267  0.53200626     0.95800
O923        O  0.65062268  0.14222878  0.53851674    -0.72700
O924        O  0.69533718  0.09131498  0.54417952    -0.76300
Al925      Al  0.65868615  0.10712462  0.56902832     1.49000
C926        C  0.72208219  0.07582130  0.55344625     0.91000
O927        O  0.75583507  0.14265661  0.59642170    -0.82500
O928        O  0.67326971  0.17632603  0.63715986    -0.76100
Al929      Al  0.72153734  0.11248060  0.61309025     1.90100
O930        O  0.72637582  0.19121480  0.59869779    -0.75100
O931        O  0.63034989  0.17650472  0.59122154    -0.75000
O932        O  0.68557311  0.18466485  0.55153477    -0.80600
O933        O  0.61913075  0.12056231  0.59190403    -0.78800
O934        O  0.68682993  0.13248399  0.59233114    -1.15000
O935        O  0.65984398  0.06599419  0.59362066    -0.74200
C936        C  0.67199268  0.05883089  0.61972610     0.96500
C937        C  0.75443977  0.17540491  0.59496092     0.92900
Al938      Al  0.67971152  0.17831274  0.59458428     1.55600
O939        O  0.73307580  0.07977608  0.58072274    -0.78800
C940        C  0.60941157  0.15173474  0.59540670     0.97100
C941        C  0.69154193  0.16168625  0.65734501     0.92000
O942        O  0.71550670  0.14082042  0.64976672    -0.84100
O943        O  0.90608547  0.36954632  0.53595056    -0.83600
C944        C  0.87970899  0.33142299  0.65746963     0.95800
O945        O  0.85626042  0.33544610  0.63747636    -0.72700
O946        O  0.86236968  0.39651871  0.61199923    -0.76300
Al947      Al  0.85951449  0.35118717  0.59540512     1.49000
C948        C  0.88000751  0.42173320  0.60244202     0.91000
O949        O  0.95860764  0.38612749  0.60765627    -0.82500
O950        O  0.94288210  0.29141172  0.57294276    -0.76100
Al951      Al  0.93071362  0.37620437  0.57284211     1.90100
O952        O  0.96771774  0.33174602  0.62046424    -0.75100
O953        O  0.88701164  0.27675072  0.60626530    -0.75000
O954        O  0.90992873  0.32326175  0.64970466    -0.80600
O955        O  0.85050962  0.30683569  0.57886490    -0.78800
O956        O  0.90501390  0.34550830  0.59296676    -1.15000
O957        O  0.85345601  0.36826269  0.55416579    -0.74200
C958        C  0.87398814  0.36985505  0.53167780     0.96500
C959        C  0.97610550  0.36358063  0.62179539     0.92900
Al960      Al  0.92508510  0.30875546  0.61085089     1.55600
O961        O  0.90461489  0.41681302  0.58398392    -0.78800
C962        C  0.86001968  0.27824796  0.59009230     0.97100
C963        C  0.96204738  0.30938234  0.55568673     0.92000
O964        O  0.96248571  0.34233228  0.55730934    -0.84100
O965        O  0.90557073  0.67408211  0.98420593    -0.83600
C966        C  0.88039383  0.71389027  0.86282892     0.95800
O967        O  0.85670620  0.70864019  0.88234044    -0.72700
O968        O  0.86250805  0.64761470  0.90824657    -0.76300
Al969      Al  0.85919383  0.69319366  0.92454100     1.49000
C970        C  0.88067056  0.62264490  0.91758519     0.91000
O971        O  0.95897812  0.66007012  0.91282484    -0.82500
O972        O  0.94151114  0.75371675  0.94913394    -0.76100
Al973      Al  0.93066324  0.66872256  0.94751687     1.90100
O974        O  0.96761166  0.71485615  0.90124622    -0.75100
O975        O  0.88594462  0.76859910  0.91503710    -0.75000
O976        O  0.91013070  0.72309708  0.87121683    -0.80600
O977        O  0.84893003  0.73753758  0.94074060    -0.78800
O978        O  0.90461833  0.69950029  0.92763671    -1.15000
O979        O  0.85292650  0.67630441  0.96579435    -0.74200
C980        C  0.87344631  0.67395628  0.98829167     0.96500
C981        C  0.97640447  0.68316649  0.89939987     0.92900
Al982      Al  0.92444485  0.73698256  0.91062285     1.55600
O983        O  0.90558313  0.62787920  0.93561263    -0.78800
C984        C  0.85841653  0.76649394  0.93031869     0.97100
C985        C  0.96108016  0.73557514  0.96597885     0.92000
O986        O  0.96173534  0.70267184  0.96389941    -0.84100
O987        O  0.68928176  0.96696767  0.89061117    -0.83600
C988        C  0.66462151  0.87373749  0.98928690     0.95800
O989        O  0.64886355  0.90182011  0.98364392    -0.72700
O990        O  0.69594860  0.95101559  0.97971225    -0.76300
Al991      Al  0.65817399  0.93821557  0.95467489     1.49000
C992        C  0.72185326  0.96765503  0.97008932     0.91000
O993        O  0.75395950  0.90276319  0.92463157    -0.82500
O994        O  0.67006882  0.87141345  0.88414378    -0.76100
Al995      Al  0.71918647  0.93357318  0.90909695     1.90100
O996        O  0.72396919  0.85452011  0.92180247    -0.75100
O997        O  0.62816902  0.87095823  0.93027983    -0.75000
O998        O  0.68370375  0.85984931  0.96932540    -0.80600
O999        O  0.61790428  0.92724322  0.93118548    -0.78800
O1000       O  0.68516127  0.91323394  0.93005436    -1.15000
O1001       O  0.66091741  0.98093897  0.93226365    -0.74200
C1002       C  0.67059766  0.98803532  0.90533550     0.96500
C1003       C  0.75227604  0.86993815  0.92567592     0.92900
Al1004     Al  0.67734456  0.86785026  0.92655635     1.55600
O1005       O  0.73141904  0.96541706  0.94219110    -0.78800
C1006       C  0.60779339  0.89635260  0.92628752     0.97100
C1007       C  0.68795245  0.88657514  0.86408803     0.92000
O1008       O  0.71260318  0.90641756  0.87187144    -0.84100
O1009       O  0.40852665  0.17475294  0.73217853    -0.83600
C1010       C  0.37807367  0.21627225  0.61217785     0.95800
O1011       O  0.35535835  0.21000589  0.63236374    -0.72700
O1012       O  0.36217414  0.14911758  0.65801808    -0.76300
Al1013     Al  0.35944691  0.19468607  0.67436036     1.49000
C1014       C  0.38109417  0.12424569  0.66626093     0.91000
O1015       O  0.45889350  0.16224279  0.65890206    -0.82500
O1016       O  0.44229896  0.25513570  0.69712505    -0.76100
Al1017     Al  0.43205341  0.17021032  0.69462296     1.90100
O1018       O  0.46709984  0.21720923  0.64792618    -0.75100
O1019       O  0.38572521  0.27015056  0.66443352    -0.75000
O1020       O  0.40809243  0.22560129  0.61974001    -0.80600
O1021       O  0.34933839  0.23909481  0.69081333    -0.78800
O1022       O  0.40498279  0.20113033  0.67599273    -1.15000
O1023       O  0.35512923  0.17786756  0.71562598    -0.74200
C1024       C  0.37660115  0.17478693  0.73730788     0.96500
C1025       C  0.47606074  0.18560393  0.64559225     0.92900
Al1026     Al  0.42403247  0.23889661  0.65878886     1.55600
O1027       O  0.40689401  0.12948226  0.68319140    -0.78800
C1028       C  0.35854455  0.26802423  0.68013093     0.97100
C1029       C  0.46216518  0.23677081  0.71353453     0.92000
O1030       O  0.46351511  0.20400822  0.71047108    -0.84100
O1031       O  0.18982235  0.46699270  0.63800584    -0.83600
C1032       C  0.16340029  0.37711457  0.73887753     0.95800
O1033       O  0.14774178  0.40489941  0.73209279    -0.72700
O1034       O  0.19559754  0.45304942  0.72755242    -0.76300
Al1035     Al  0.15812350  0.44022316  0.70245239     1.49000
C1036       C  0.22173442  0.46929222  0.71793377     0.91000
O1037       O  0.25398906  0.40368399  0.67380500    -0.82500
O1038       O  0.17092791  0.37063587  0.63394211    -0.76100
Al1039     Al  0.21944582  0.43402723  0.65752434     1.90100
O1040       O  0.22401904  0.35530538  0.67294245    -0.75100
O1041       O  0.12803115  0.37253856  0.67940072    -0.75000
O1042       O  0.18290825  0.36255447  0.71963160    -0.80600
O1043       O  0.11831183  0.42901579  0.67870607    -0.78800
O1044       O  0.18522929  0.41435306  0.67872441    -1.15000
O1045       O  0.16177136  0.48233073  0.67942431    -0.74200
C1046       C  0.17173425  0.48875762  0.65247958     0.96500
C1047       C  0.25233020  0.37094699  0.67593988     0.92900
Al1048     Al  0.17733574  0.36888654  0.67653910     1.55600
O1049       O  0.23152943  0.46669326  0.69010804    -0.78800
C1050       C  0.10790548  0.39805155  0.67481932     0.97100
C1051       C  0.18885073  0.38533862  0.61364912     0.92000
O1052       O  0.21306040  0.40586839  0.62106174    -0.84100
O1053       O  0.82553778  0.46629967  0.88242439    -0.83600
C1054       C  0.85400853  0.37698838  0.78079953     0.95800
O1055       O  0.86991355  0.40456901  0.78800899    -0.72700
O1056       O  0.82474372  0.45499182  0.79382155    -0.76300
Al1057     Al  0.86109124  0.43921061  0.81893616     1.49000
C1058       C  0.79751615  0.46977878  0.80286231     0.91000
O1059       O  0.76387046  0.40212682  0.84473401    -0.82500
O1060       O  0.84666011  0.36905038  0.88546333    -0.76100
Al1061     Al  0.79770633  0.43261110  0.86209597     1.90100
O1062       O  0.79389691  0.35398261  0.84665932    -0.75100
O1063       O  0.88950804  0.36980796  0.83991895    -0.75000
O1064       O  0.83461519  0.36203446  0.79984051    -0.80600
O1065       O  0.90022895  0.42577642  0.84237109    -0.78800
O1066       O  0.83279883  0.41330586  0.84141750    -1.15000
O1067       O  0.85925517  0.47996804  0.84403235    -0.74200
C1068       C  0.84680277  0.48669880  0.87010264     0.96500
C1069       C  0.76567369  0.36941241  0.84285996     0.92900
Al1070     Al  0.84029776  0.36754163  0.84294754     1.55600
O1071       O  0.78608758  0.46536337  0.82990974    -0.78800
C1072       C  0.90998417  0.39459991  0.84559061     0.97100
C1073       C  0.82852966  0.38357419  0.90581731     0.92000
O1074       O  0.80405955  0.40398364  0.89852127    -0.84100
O1075       O  0.61488318  0.17597476  0.78705359    -0.83600
C1076       C  0.64089633  0.21520926  0.90861832     0.95800
O1077       O  0.66431138  0.21045936  0.88882848    -0.72700
O1078       O  0.65566243  0.14867063  0.86570534    -0.76300
Al1079     Al  0.66077008  0.19285692  0.84734979     1.49000
C1080       C  0.63923493  0.12319746  0.85492103     0.91000
O1081       O  0.56233235  0.15813081  0.85845776    -0.82500
O1082       O  0.57741068  0.25251033  0.82285207    -0.76100
Al1083     Al  0.59015894  0.16824843  0.82356385     1.90100
O1084       O  0.55325380  0.21278368  0.87130853    -0.75100
O1085       O  0.63369182  0.26792230  0.85533882    -0.75000
O1086       O  0.61076474  0.22317556  0.90045790    -0.80600
O1087       O  0.67095528  0.23636183  0.82977357    -0.78800
O1088       O  0.61553054  0.19917701  0.84397099    -1.15000
O1089       O  0.66707531  0.17385361  0.80641785    -0.74200
C1090       C  0.64704321  0.17438962  0.78340516     0.96500
C1091       C  0.54498904  0.18085510  0.87278080     0.92900
Al1092     Al  0.59552397  0.23623178  0.86110191     1.55600
O1093       O  0.61715639  0.12760169  0.83392918    -0.78800
C1094       C  0.66103281  0.26555209  0.83966297     0.97100
C1095       C  0.55783642  0.23419375  0.80615993     0.92000
O1096       O  0.55751308  0.20134059  0.80832170    -0.84100
O1097       O  0.61208581  0.87218900  0.73272912    -0.83600
C1098       C  0.64052626  0.82915775  0.61252467     0.95800
O1099       O  0.66375040  0.83548912  0.63233400    -0.72700
O1100       O  0.65709306  0.89720436  0.65720409    -0.76300
Al1101     Al  0.66025445  0.85199924  0.67430745     1.49000
C1102       C  0.63872080  0.92234402  0.66593669     0.91000
O1103       O  0.56127784  0.88470169  0.65966473    -0.82500
O1104       O  0.57776735  0.79203917  0.69815723    -0.76100
Al1105     Al  0.58820362  0.87681524  0.69529591     1.90100
O1106       O  0.55235647  0.82962566  0.64909126    -0.75100
O1107       O  0.63376064  0.77645079  0.66546160    -0.75000
O1108       O  0.61062436  0.82027383  0.62056377    -0.80600
O1109       O  0.67043572  0.80799034  0.69134897    -0.78800
O1110       O  0.61482405  0.84561960  0.67651727    -1.15000
O1111       O  0.66524259  0.86988518  0.71555945    -0.74200
C1112       C  0.64409402  0.87259676  0.73757617     0.96500
C1113       C  0.54384258  0.86135017  0.64648885     0.92900
Al1114     Al  0.59543107  0.80769791  0.65975705     1.55600
O1115       O  0.61361331  0.91741392  0.68371977    -0.78800
C1116       C  0.66100637  0.77883883  0.68114168     0.97100
C1117       C  0.55748170  0.81046774  0.71402534     0.92000
O1118       O  0.55646573  0.84327476  0.71117818    -0.84100
O1119       O  0.82568602  0.57775295  0.63860171    -0.83600
C1120       C  0.85669210  0.66813945  0.73900147     0.95800
O1121       O  0.87245122  0.64045943  0.73177785    -0.72700
O1122       O  0.82681492  0.59019742  0.72686920    -0.76300
Al1123     Al  0.86276954  0.60551536  0.70115457     1.49000
C1124       C  0.79907188  0.57585955  0.71848888     0.91000
O1125       O  0.76488461  0.64279872  0.67571745    -0.82500
O1126       O  0.84672311  0.67524362  0.63426969    -0.76100
Al1127     Al  0.79847454  0.61189956  0.65871112     1.90100
O1128       O  0.79496892  0.69084998  0.67414852    -0.75100
O1129       O  0.89099115  0.67449560  0.67886900    -0.75000
O1130       O  0.83708510  0.68299096  0.72002433    -0.80600
O1131       O  0.90161309  0.61844909  0.67707348    -0.78800
O1132       O  0.83402245  0.63132818  0.67882402    -1.15000
O1133       O  0.86029446  0.56441973  0.67651654    -0.74200
C1134       C  0.84711383  0.55744306  0.65078472     0.96500
C1135       C  0.76668845  0.67548291  0.67767587     0.92900
Al1136     Al  0.84156955  0.67705380  0.67688157     1.55600
O1137       O  0.78713368  0.57997902  0.69155029    -0.78800
C1138       C  0.91145282  0.64953626  0.67349976     0.97100
C1139       C  0.82860579  0.66021814  0.61417241     0.92000
O1140       O  0.80449011  0.63964540  0.62182047    -0.84100
O1141       O  0.40578214  0.87026095  0.78596239    -0.83600
C1142       C  0.38041808  0.83129350  0.90746139     0.95800
O1143       O  0.35674221  0.83626672  0.88786309    -0.72700
O1144       O  0.36490406  0.89757654  0.86393004    -0.76300
Al1145     Al  0.35967467  0.85301366  0.84609325     1.49000
C1146       C  0.38182720  0.92285482  0.85354668     0.91000
O1147       O  0.45869644  0.88626411  0.85763457    -0.82500
O1148       O  0.44121160  0.79211940  0.82139340    -0.76100
Al1149     Al  0.43061295  0.87689474  0.82259970     1.90100
O1150       O  0.46759826  0.83135167  0.86917116    -0.75100
O1151       O  0.38559721  0.77771322  0.85507063    -0.75000
O1152       O  0.41033492  0.82278804  0.89914182    -0.80600
O1153       O  0.34882509  0.80912932  0.82901858    -0.78800
O1154       O  0.40478795  0.84626762  0.84272946    -1.15000
O1155       O  0.35339294  0.87135510  0.80489611    -0.74200
C1156       C  0.37366205  0.87191001  0.78206743     0.96500
C1157       C  0.47622076  0.86314413  0.87115832     0.92900
Al1158     Al  0.42445410  0.80892362  0.85978693     1.55600
O1159       O  0.40457498  0.91807475  0.83325525    -0.78800
C1160       C  0.35812322  0.78006012  0.83955805     0.97100
C1161       C  0.46080912  0.81009223  0.80456580     0.92000
O1162       O  0.46218168  0.84294028  0.80701177    -0.84100
O1163       O  0.19286947  0.57832533  0.88175177    -0.83600
C1164       C  0.16414544  0.66852673  0.78135741     0.95800
O1165       O  0.14836286  0.64082437  0.78821529    -0.72700
O1166       O  0.19392408  0.59085763  0.79323840    -0.76300
Al1167     Al  0.15745997  0.60587713  0.81855126     1.49000
C1168       C  0.22118604  0.57604808  0.80213474     0.91000
O1169       O  0.25454882  0.64329355  0.84512745    -0.82500
O1170       O  0.17156173  0.67503871  0.88637323    -0.76100
Al1171     Al  0.22076745  0.61227582  0.86193148     1.90100
O1172       O  0.22415810  0.69120049  0.84766869    -0.75100
O1173       O  0.12841420  0.67464277  0.84077915    -0.75000
O1174       O  0.18317745  0.68357831  0.80074981    -0.80600
O1175       O  0.11817579  0.61853682  0.84212217    -0.78800
O1176       O  0.18556124  0.63167856  0.84150571    -1.15000
O1177       O  0.15956465  0.56479107  0.84295398    -0.74200
C1178       C  0.17155294  0.55804712  0.86918916     0.96500
C1179       C  0.25254834  0.67605985  0.84376622     0.92900
Al1180     Al  0.17771068  0.67732319  0.84381317     1.55600
O1181       O  0.23249070  0.58004773  0.82930883    -0.78800
C1182       C  0.10810188  0.64954931  0.84580056     0.97100
C1183       C  0.18993119  0.66029726  0.90642996     0.92000
O1184       O  0.21445446  0.64020407  0.89869927    -0.84100
C1185       C  0.30420243  0.75367152  0.81881764    -0.15100
C1186       C  0.33489075  0.74960918  0.83561170     0.07000
C1187       C  0.34049093  0.71806032  0.85146263    -0.15100
C1188       C  0.31469012  0.69233731  0.85234899    -0.15100
C1189       C  0.28294153  0.69811727  0.83769570     0.07000
C1190       C  0.27850519  0.72838702  0.82004552    -0.15100
H1191       H  0.29910356  0.77738043  0.80607624     0.11000
H1192       H  0.36390539  0.71411897  0.86456583     0.11000
H1193       H  0.31860594  0.66918964  0.86616566     0.11000
H1194       H  0.25435334  0.73323956  0.80826539     0.11000
C1195       C  0.67912692  0.71731412  0.66849045    -0.15100
C1196       C  0.68382815  0.74822578  0.68558793     0.07000
C1197       C  0.71351401  0.75163764  0.70387641    -0.15100
C1198       C  0.73939532  0.72646300  0.70277982    -0.15100
C1199       C  0.73599551  0.69703853  0.68378306     0.07000
C1200       C  0.70504978  0.69175118  0.66771086    -0.15100
H1201       H  0.65649557  0.71391364  0.65420552     0.11000
H1202       H  0.71778072  0.77485499  0.71762312     0.11000
H1203       H  0.76294474  0.73083178  0.71564051     0.11000
H1204       H  0.70200134  0.66924810  0.65283429     0.11000
C1205       C  0.47327189  0.79473106  0.75094423    -0.15100
C1206       C  0.48338967  0.79388650  0.78187390     0.07000
C1207       C  0.51826823  0.78946866  0.78936845    -0.15100
C1208       C  0.54321946  0.78986493  0.76619979    -0.15100
C1209       C  0.53324106  0.79470336  0.73551012     0.07000
C1210       C  0.49816673  0.79521341  0.72782072    -0.15100
H1211       H  0.44659866  0.79914425  0.74490897     0.11000
H1212       H  0.52647343  0.78986980  0.81324688     0.11000
H1213       H  0.57016378  0.79047145  0.77249760     0.11000
H1214       H  0.49018108  0.79990127  0.70425223     0.11000
C1215       C  0.70363926  0.35360727  0.85133985    -0.15100
C1216       C  0.73519572  0.34774928  0.83646762     0.07000
C1217       C  0.73946794  0.31755887  0.81858778    -0.15100
C1218       C  0.71387999  0.29220980  0.81759869    -0.15100
C1219       C  0.68355731  0.29621292  0.83487033     0.07000
C1220       C  0.67794879  0.32783535  0.85067635    -0.15100
H1221       H  0.69990343  0.37674649  0.86529727     0.11000
H1222       H  0.76349986  0.31271841  0.80662745     0.11000
H1223       H  0.71889282  0.26843197  0.80483162     0.11000
H1224       H  0.65476241  0.33170004  0.86409284     0.11000
C1225       C  0.77892198  0.48892367  0.75092366    -0.15100
C1226       C  0.78228727  0.49607078  0.78247943     0.07000
C1227       C  0.78162972  0.53080447  0.79268122    -0.15100
C1228       C  0.78278874  0.55799351  0.77134860    -0.15100
C1229       C  0.78341208  0.55067402  0.73968615     0.07000
C1230       C  0.77884085  0.51618349  0.72960083    -0.15100
H1231       H  0.77989579  0.46222229  0.74263396     0.11000
H1232       H  0.78488363  0.53682241  0.81689102     0.11000
H1233       H  0.78669175  0.58444643  0.77953534     0.11000
H1234       H  0.77981918  0.50997232  0.70528954     0.11000
C1235       C  0.23888722  0.48824884  0.77034793    -0.15100
C1236       C  0.23710924  0.49526035  0.73869266     0.07000
C1237       C  0.23974205  0.52986563  0.72848858    -0.15100
C1238       C  0.23887577  0.55724873  0.74978096    -0.15100
C1239       C  0.23667030  0.55019451  0.78139579     0.07000
C1240       C  0.23922359  0.51561675  0.79163010    -0.15100
H1241       H  0.23642267  0.46168939  0.77865790     0.11000
H1242       H  0.23782936  0.53584297  0.70423184     0.11000
H1243       H  0.23646261  0.58382222  0.74147242     0.11000
H1244       H  0.23688722  0.50964065  0.81586193     0.11000
C1245       C  0.30615305  0.29563100  0.70268980    -0.15100
C1246       C  0.33557513  0.29863643  0.68409440     0.07000
C1247       C  0.33986940  0.32903901  0.66633543    -0.15100
C1248       C  0.31383680  0.35449516  0.66534978    -0.15100
C1249       C  0.28318989  0.34959335  0.68188530     0.07000
C1250       C  0.28018697  0.32069101  0.70141433    -0.15100
H1251       H  0.30218032  0.27281112  0.71690137     0.11000
H1252       H  0.36227162  0.33209688  0.65176308     0.11000
H1253       H  0.31656857  0.37658001  0.65005002     0.11000
H1254       H  0.25686932  0.31662789  0.71462587     0.11000
C1255       C  0.52005518  0.25542762  0.72989795    -0.15100
C1256       C  0.48488094  0.25221368  0.73673664     0.07000
C1257       C  0.47428109  0.25154064  0.76755347    -0.15100
C1258       C  0.49876518  0.25035251  0.79114342    -0.15100
C1259       C  0.53401534  0.25004831  0.78410422     0.07000
C1260       C  0.54456953  0.25439997  0.75351848    -0.15100
H1261       H  0.52870383  0.25474536  0.70619246     0.11000
H1262       H  0.44736780  0.24787571  0.77317102     0.11000
H1263       H  0.49024341  0.24595342  0.81455784     0.11000
H1264       H  0.57162926  0.25311525  0.74764819     0.11000
C1265       C  0.65699782  0.05106408  0.91142638    -0.15100
C1266       C  0.66122766  0.02206495  0.89195035     0.07000
C1267       C  0.65740020  0.02633527  0.86003024    -0.15100
C1268       C  0.64919112  0.05912030  0.84780711    -0.15100
C1269       C  0.64590704  0.08817665  0.86733571     0.07000
C1270       C  0.64991540  0.08389423  0.89916930    -0.15100
H1271       H  0.66008119  0.04850666  0.93606358     0.11000
H1272       H  0.66056809  0.00427102  0.84458382     0.11000
H1273       H  0.64634639  0.06201770  0.82319312     0.11000
H1274       H  0.64736529  0.10604598  0.91462963     0.11000
C1275       C  0.68695075  0.84698250  0.53768096    -0.15100
C1276       C  0.65912635  0.85696991  0.51907057     0.07000
C1277       C  0.62544354  0.85384110  0.53014902    -0.15100
C1278       C  0.61956126  0.84227805  0.55998077    -0.15100
C1279       C  0.64735361  0.83461925  0.57957662     0.07000
C1280       C  0.68112274  0.83630105  0.56803818    -0.15100
H1281       H  0.71314298  0.84938231  0.02933676     0.11000
H1282       H  0.60371652  0.86131581  0.51594329     0.11000
H1283       H  0.59324889  0.84138618  0.56827102     0.11000
H1284       H  0.70290970  0.83048331  0.58273119     0.11000
C1285       C  0.64561481  0.86852197  0.82419047    -0.15100
C1286       C  0.67841597  0.88179160  0.83137226     0.07000
C1287       C  0.70036724  0.89181985  0.80725865    -0.15100
C1288       C  0.68962853  0.88842441  0.77652852    -0.15100
C1289       C  0.65652137  0.87572923  0.76960073     0.07000
C1290       C  0.63474071  0.86577191  0.79375835    -0.15100
H1291       H  0.62787913  0.86089280  0.84219000     0.11000
H1292       H  0.72569299  0.90230900  0.81215608     0.11000
H1293       H  0.70687028  0.89631416  0.75826015     0.11000
H1294       H  0.60919400  0.85564225  0.78913151     0.11000
C1295       C  0.55012989  0.91570997  0.90550128    -0.15100
C1296       C  0.57237157  0.88895751  0.91527679     0.07000
C1297       C  0.56144052  0.85414381  0.91247171    -0.15100
C1298       C  0.52975654  0.84609965  0.89914791    -0.15100
C1299       C  0.50808147  0.87260211  0.88809821     0.07000
C1300       C  0.51826220  0.90759616  0.89193651    -0.15100
H1301       H  0.55781474  0.94278852  0.90740712     0.11000
H1302       H  0.57778330  0.83287073  0.91987993     0.11000
H1303       H  0.52275030  0.81888869  0.89666590     0.11000
H1304       H  0.50202154  0.92859946  0.88380842     0.11000
C1305       C  0.02856381  0.69971121  0.86924701    -0.15100
C1306       C  0.00826617  0.67359985  0.88274478     0.07000
C1307       C  0.01986099  0.63883614  0.88177926    -0.15100
C1308       C  0.05180493  0.63064230  0.86868153    -0.15100
C1309       C  0.07273111  0.65709067  0.85647199     0.07000
C1310       C  0.06043858  0.69156801  0.85632851    -0.15100
H1311       H  0.02030323  0.72670316  0.86944341     0.11000
H1312       H  0.00473262  0.61813712  0.89190710     0.11000
H1313       H  0.06062329  0.60383102  0.86908419     0.11000
H1314       H  0.07582770  0.71248237  0.84686752     0.11000
C1315       C  0.84075860  0.82862685  0.91846483    -0.15100
C1316       C  0.83523430  0.79701223  0.93421628     0.07000
C1317       C  0.80449285  0.79280002  0.95082201    -0.15100
C1318       C  0.77860998  0.81785942  0.94936802    -0.15100
C1319       C  0.78288199  0.84810868  0.93171313     0.07000
C1320       C  0.81473099  0.85418874  0.91737613    -0.15100
H1321       H  0.86426036  0.83270943  0.90557250     0.11000
H1322       H  0.79945950  0.76908246  0.96354825     0.11000
H1323       H  0.75443618  0.81283206  0.96099951     0.11000
H1324       H  0.81856983  0.87741329  0.90366411     0.11000
C1325       C  0.88085224  0.68364112  0.54425836    -0.15100
C1326       C  0.86017929  0.67163979  0.52000636     0.07000
C1327       C  0.82762127  0.65742035  0.52659182    -0.15100
C1328       C  0.81657919  0.65413120  0.55722447    -0.15100
C1329       C  0.83765053  0.66581066  0.58148946     0.07000
C1330       C  0.86965147  0.68102377  0.57452644    -0.15100
H1331       H  0.90587041  0.69504761  0.53983200     0.11000
H1332       H  0.81124121  0.64801699  0.00818573     0.11000
H1333       H  0.79188898  0.64215111  0.56193564     0.11000
H1334       H  0.88672754  0.69007129  0.59259438     0.11000
C1335       C  0.84051656  0.70628754  0.81783190    -0.15100
C1336       C  0.87407716  0.70688400  0.82995894     0.07000
C1337       C  0.90184233  0.69695378  0.81114178    -0.15100
C1338       C  0.89600105  0.68486111  0.78134453    -0.15100
C1339       C  0.86247147  0.68344516  0.76951313     0.07000
C1340       C  0.83479461  0.69513974  0.78754302    -0.15100
H1341       H  0.81869645  0.71372789  0.83197324     0.11000
H1342       H  0.92792937  0.69685659  0.81996918     0.11000
H1343       H  0.91769515  0.67613171  0.76758895     0.11000
H1344       H  0.80874832  0.69413822  0.77868056     0.11000
C1345       C  0.83819374  0.57523877  0.90733730    -0.15100
C1346       C  0.87246606  0.58689861  0.90744197     0.07000
C1347       C  0.89860217  0.56449267  0.89703000    -0.15100
C1348       C  0.89036100  0.53142046  0.88542532    -0.15100
C1349       C  0.85605916  0.51980915  0.88524554     0.07000
C1350       C  0.83011984  0.54169642  0.89681772    -0.15100
H1351       H  0.81768572  0.59215337  0.91536423     0.11000
H1352       H  0.92518032  0.57310350  0.89681942     0.11000
H1353       H  0.91068958  0.51497778  0.87633095     0.11000
H1354       H  0.80344549  0.53340375  0.89643359     0.11000
C1355       C  0.02763474  0.34820816  0.65328800    -0.15100
C1356       C  0.00769470  0.37383702  0.63863790     0.07000
C1357       C  0.01957881  0.40852312  0.63849258    -0.15100
C1358       C  0.05161572  0.41695394  0.65143910    -0.15100
C1359       C  0.07228451  0.39080516  0.66457257     0.07000
C1360       C  0.05954245  0.35656006  0.66601296    -0.15100
H1361       H  0.01913004  0.32131815  0.65406256     0.11000
H1362       H  0.00469508  0.42887397  0.62750315     0.11000
H1363       H  0.06077332  0.44359191  0.65008245     0.11000
H1364       H  0.07465353  0.33590470  0.67629774     0.11000
C1365       C  0.88223941  0.36198026  0.97545130    -0.15100
C1366       C  0.86071349  0.37181917  0.49986171     0.07000
C1367       C  0.82715926  0.38363999  0.49335843    -0.15100
C1368       C  0.81596426  0.38693084  0.96275965    -0.15100
C1369       C  0.83792758  0.37765829  0.93838143     0.07000
C1370       C  0.87093217  0.36461080  0.94517038    -0.15100
H1371       H  0.90806717  0.35237498  0.97974255     0.11000
H1372       H  0.81000783  0.39122530  0.51184211     0.11000
H1373       H  0.79041917  0.39706173  0.95816181     0.11000
H1374       H  0.88864728  0.35742245  0.92696523     0.11000
C1375       C  0.83872162  0.33939417  0.70161172    -0.15100
C1376       C  0.87256483  0.33854514  0.69013420     0.07000
C1377       C  0.89998622  0.34814168  0.70947236    -0.15100
C1378       C  0.89366852  0.36005491  0.73916897    -0.15100
C1379       C  0.85993078  0.36170918  0.75038520     0.07000
C1380       C  0.83249151  0.35044747  0.73184899    -0.15100
H1381       H  0.81719728  0.33223961  0.68707067     0.11000
H1382       H  0.92631711  0.34805431  0.70116665     0.11000
H1383       H  0.91511518  0.36846265  0.75330696     0.11000
H1384       H  0.80624329  0.35169199  0.74028910     0.11000
C1385       C  0.89766360  0.48226775  0.61724882    -0.15100
C1386       C  0.87158115  0.45732793  0.61297738     0.07000
C1387       C  0.83733344  0.46630068  0.61980089    -0.15100
C1388       C  0.82928958  0.49962969  0.63073761    -0.15100
C1389       C  0.85547314  0.52411191  0.63587522     0.07000
C1390       C  0.88971962  0.51526917  0.62918167    -0.15100
H1391       H  0.92428005  0.47580767  0.61234908     0.11000
H1392       H  0.81679845  0.44748680  0.61668714     0.11000
H1393       H  0.80278367  0.50591884  0.63627870     0.11000
H1394       H  0.91024077  0.53383422  0.63335684     0.11000
C1395       C  0.73973299  0.01493797  0.54354805    -0.15100
C1396       C  0.73728773  0.04941635  0.53297310     0.07000
C1397       C  0.73945424  0.05598589  0.50127070    -0.15100
C1398       C  0.74002466  0.02829760  0.98027600    -0.15100
C1399       C  0.73715779  0.99383338  0.99079977     0.07000
C1400       C  0.73907824  0.98723771  0.52253864    -0.15100
H1401       H  0.73756968  0.00930528  0.56787986     0.11000
H1402       H  0.73723366  0.08241470  0.99268306     0.11000
H1403       H  0.73807222  0.03400954  0.95593937     0.11000
H1404       H  0.73659564  0.96083195  0.53111720     0.11000
C1405       C  0.62857405  0.01413461  0.63526402    -0.15100
C1406       C  0.66296630  0.02532719  0.63407059     0.07000
C1407       C  0.68920386  0.00279195  0.64396082    -0.15100
C1408       C  0.68127702  0.96914087  0.65409867    -0.15100
C1409       C  0.64689266  0.95795922  0.65549481     0.07000
C1410       C  0.62053103  0.98090934  0.64651148    -0.15100
H1411       H  0.60803356  0.03106721  0.62739438     0.11000
H1412       H  0.71594105  0.01077566  0.64268837     0.11000
H1413       H  0.70197159  0.95185495  0.66098509     0.11000
H1414       H  0.59383766  0.97269338  0.64728241     0.11000
C1415       C  0.81628401  0.19136819  0.60460397    -0.15100
C1416       C  0.78519027  0.19661777  0.58874519     0.07000
C1417       C  0.78159514  0.22581384  0.56967510    -0.15100
C1418       C  0.80745783  0.25080426  0.56818796    -0.15100
C1419       C  0.83734792  0.24752040  0.58620695     0.07000
C1420       C  0.84224255  0.21685238  0.60347414    -0.15100
H1421       H  0.81944035  0.16900323  0.61953014     0.11000
H1422       H  0.75790039  0.23015933  0.55702182     0.11000
H1423       H  0.80297801  0.27384033  0.55434769     0.11000
H1424       H  0.86505430  0.21359278  0.61754405     0.11000
C1425       C  0.62055095  0.19895540  0.96060257    -0.15100
C1426       C  0.64793321  0.20884800  0.94145873     0.07000
C1427       C  0.68171149  0.20860443  0.95324165    -0.15100
C1428       C  0.68791220  0.19766800  0.48352244    -0.15100
C1429       C  0.66053406  0.18588304  0.50179152     0.07000
C1430       C  0.62684860  0.18715012  0.99031176    -0.15100
H1431       H  0.59428229  0.19854900  0.95206874     0.11000
H1432       H  0.70321961  0.21599823  0.93886523     0.11000
H1433       H  0.71413211  0.19676439  0.49213338     0.11000
H1434       H  0.60543378  0.17834760  0.00420417     0.11000
C1435       C  0.65170556  0.18445979  0.69737880    -0.15100
C1436       C  0.68307039  0.16806799  0.69009217     0.07000
C1437       C  0.70401856  0.15574025  0.71416951    -0.15100
C1438       C  0.69309731  0.15873422  0.74487307    -0.15100
C1439       C  0.66078414  0.17340666  0.75173873     0.07000
C1440       C  0.64062456  0.18685277  0.72773097    -0.15100
H1441       H  0.63489221  0.19433683  0.67948111     0.11000
H1442       H  0.72839312  0.14312012  0.70923059     0.11000
H1443       H  0.70923093  0.14847936  0.76306233     0.11000
H1444       H  0.61589382  0.19888437  0.73238102     0.11000
C1445       C  0.55134535  0.13317141  0.61469310    -0.15100
C1446       C  0.57363997  0.15973937  0.60484877     0.07000
C1447       C  0.56211012  0.19450427  0.60574008    -0.15100
C1448       C  0.52967686  0.20269597  0.61760104    -0.15100
C1449       C  0.50809606  0.17633969  0.62900690     0.07000
C1450       C  0.51890295  0.14139433  0.62672918    -0.15100
H1451       H  0.55943963  0.10612973  0.61414100     0.11000
H1452       H  0.57852793  0.21554661  0.59804339     0.11000
H1453       H  0.52207137  0.22984876  0.61888542     0.11000
H1454       H  0.50278313  0.12049196  0.63517761     0.11000
C1455       C  0.39119001  0.03361013  0.63325510    -0.15100
C1456       C  0.35697168  0.02184462  0.63305575     0.07000
C1457       C  0.33091417  0.04335986  0.64496146    -0.15100
C1458       C  0.33880184  0.07676994  0.65583747    -0.15100
C1459       C  0.37299564  0.08861574  0.65591335     0.07000
C1460       C  0.39924976  0.06653726  0.64519243    -0.15100
H1461       H  0.41159270  0.01737979  0.62400240     0.11000
H1462       H  0.30431567  0.03485924  0.64464631     0.11000
H1463       H  0.31822672  0.09342166  0.66415072     0.11000
H1464       H  0.42576649  0.07530053  0.64500563     0.11000
C1465       C  0.33430053  0.84902866  0.98248447    -0.15100
C1466       C  0.36176998  0.86110115  0.50056510     0.07000
C1467       C  0.39539401  0.85986784  0.48900076    -0.15100
C1468       C  0.40148292  0.84786745  0.95926972    -0.15100
C1469       C  0.37388893  0.83781547  0.94029948     0.07000
C1470       C  0.34027031  0.83792834  0.95224544    -0.15100
H1471       H  0.30818312  0.84986632  0.99120510     0.11000
H1472       H  0.41690130  0.86886140  0.50283198     0.11000
H1473       H  0.42762873  0.84827092  0.95057946     0.11000
H1474       H  0.31862781  0.83031107  0.93798199     0.11000
C1475       C  0.31717599  0.89236133  0.71265164    -0.15100
C1476       C  0.33837217  0.88072856  0.68845543     0.07000
C1477       C  0.37016610  0.86514391  0.69564043    -0.15100
C1478       C  0.38106121  0.86216810  0.72601443    -0.15100
C1479       C  0.36033318  0.87421225  0.75023425     0.07000
C1480       C  0.32793875  0.88876443  0.74340258    -0.15100
H1481       H  0.29259982  0.90456276  0.70779927     0.11000
H1482       H  0.38732198  0.85605395  0.67767180     0.11000
H1483       H  0.40599303  0.85055920  0.73052334     0.11000
H1484       H  0.31147456  0.89822559  0.76171095     0.11000
C1485       C  0.45802931  0.85313119  0.60620349    -0.15100
C1486       C  0.44719901  0.88808840  0.60453696     0.07000
C1487       C  0.46986300  0.91450866  0.61413246    -0.15100
C1488       C  0.50202042  0.90595707  0.62664306    -0.15100
C1489       C  0.51207537  0.87084785  0.62965719     0.07000
C1490       C  0.49009885  0.84461996  0.61856620    -0.15100
H1491       H  0.44131079  0.83216132  0.59875077     0.11000
H1492       H  0.46228836  0.94167441  0.61297393     0.11000
H1493       H  0.51851644  0.92675526  0.63483091     0.11000
H1494       H  0.49711657  0.81735622  0.62044075     0.11000
C1495       C  0.00081436  0.75567964  0.54154079    -0.15100
C1496       C  0.03571780  0.75250913  0.53366930     0.07000
C1497       C  0.04537524  0.75279620  0.50262946    -0.15100
C1498       C  0.02015354  0.75238121  0.97968260    -0.15100
C1499       C  0.98515162  0.75169613  0.98763981     0.07000
C1500       C  0.97554731  0.75522290  0.51857048    -0.15100
H1501       H  0.99295758  0.75436900  0.56544142     0.11000
H1502       H  0.07209292  0.74925111  0.99623777     0.11000
H1503       H  0.02792943  0.74858522  0.95595958     0.11000
H1504       H  0.94871163  0.75361590  0.52510758     0.11000
C1505       C  0.99072838  0.70019852  0.65007285    -0.15100
C1506       C  0.01202928  0.67395055  0.63787928     0.07000
C1507       C  0.00087703  0.63907718  0.63926517    -0.15100
C1508       C  0.96859133  0.63083755  0.65169054    -0.15100
C1509       C  0.94682729  0.65733954  0.66280993     0.07000
C1510       C  0.95852422  0.69201387  0.66229704    -0.15100
H1511       H  0.99849775  0.72730756  0.64940948     0.11000
H1512       H  0.01669970  0.61827363  0.63006443     0.11000
H1513       H  0.96028338  0.60387967  0.65178257     0.11000
H1514       H  0.94249757  0.71302944  0.67082467     0.11000
C1515       C  0.21386014  0.79459296  0.56719028    -0.15100
C1516       C  0.18453842  0.79768419  0.58593948     0.07000
C1517       C  0.18010206  0.82828484  0.60351347    -0.15100
C1518       C  0.20583913  0.85400003  0.60404245    -0.15100
C1519       C  0.23633153  0.84914910  0.58725354     0.07000
C1520       C  0.23955984  0.81989657  0.56804865    -0.15100
H1521       H  0.21796655  0.77157872  0.55314393     0.11000
H1522       H  0.15779965  0.83137350  0.61822220     0.11000
H1523       H  0.20303310  0.87630492  0.61918541     0.11000
H1524       H  0.26284082  0.81580522  0.55476365     0.11000
C1525       C  0.20169113  0.65278469  0.96318506    -0.15100
C1526       C  0.18104497  0.66577500  0.93917262     0.07000
C1527       C  0.14973553  0.68226742  0.94646139    -0.15100
C1528       C  0.13888535  0.68506856  0.97682740    -0.15100
C1529       C  0.15922880  0.67195237  0.50083397     0.07000
C1530       C  0.19099983  0.65619162  0.49390217    -0.15100
H1531       H  0.22579794  0.63968983  0.95820943     0.11000
H1532       H  0.13298961  0.69230958  0.92859341     0.11000
H1533       H  0.11438300  0.69754186  0.98152836     0.11000
H1534       H  0.20702764  0.64576007  0.51209817     0.11000
C1535       C  0.18052340  0.70846578  0.70329946    -0.15100
C1536       C  0.14733269  0.70684322  0.69042136     0.07000
C1537       C  0.11992249  0.69421000  0.70822123    -0.15100
C1538       C  0.12562682  0.68229460  0.73795401    -0.15100
C1539       C  0.15869199  0.68356482  0.75078775     0.07000
C1540       C  0.18605573  0.69739725  0.73363118    -0.15100
H1541       H  0.20203266  0.71784554  0.68986521     0.11000
H1542       H  0.09415809  0.69215244  0.69868402     0.11000
H1543       H  0.10423023  0.67175506  0.75088845     0.11000
H1544       H  0.21183688  0.69830891  0.74324685     0.11000
C1545       C  0.16602824  0.55267721  0.65801338    -0.15100
C1546       C  0.16375919  0.52302136  0.63915304     0.07000
C1547       C  0.15382020  0.52671164  0.60826202    -0.15100
C1548       C  0.14529021  0.55973183  0.59668203    -0.15100
C1549       C  0.14781669  0.58939663  0.61563240     0.07000
C1550       C  0.15863046  0.58559845  0.64625255    -0.15100
H1551       H  0.17396599  0.55038562  0.68185523     0.11000
H1552       H  0.15199989  0.50405801  0.59338756     0.11000
H1553       H  0.13728243  0.56221000  0.57289155     0.11000
H1554       H  0.16080896  0.60811266  0.66127187     0.11000
C1555       C  0.36551916  0.02034639  0.85837779    -0.15100
C1556       C  0.35879446  0.02436462  0.88996675     0.07000
C1557       C  0.36045340  0.99507418  0.90923926    -0.15100
C1558       C  0.36792773  0.96221058  0.89717399    -0.15100
C1559       C  0.37490227  0.95807711  0.86572073     0.07000
C1560       C  0.37413575  0.98742882  0.84640345    -0.15100
H1561       H  0.36441727  0.04262475  0.84313577     0.11000
H1562       H  0.35512779  0.99747295  0.93364869     0.11000
H1563       H  0.36847261  0.93995011  0.91248524     0.11000
H1564       H  0.37929084  0.98470091  0.82200182     0.11000
C1565       C  0.27984489  0.03097486  0.54082208    -0.15100
C1566       C  0.28334486  0.99653659  0.53024801     0.07000
C1567       C  0.28180861  0.98981318  0.49849979    -0.15100
C1568       C  0.28071705  0.01741341  0.97752160    -0.15100
C1569       C  0.28244666  0.05198661  0.98813685     0.07000
C1570       C  0.27997044  0.05859962  0.51986078    -0.15100
H1571       H  0.28155701  0.03675674  0.56517572     0.11000
H1572       H  0.28486474  0.96339887  0.48989732     0.11000
H1573       H  0.28318859  0.01170224  0.95321458     0.11000
H1574       H  0.28169640  0.08511116  0.52852604     0.11000
C1575       C  0.39167702  0.19906810  0.52785229    -0.15100
C1576       C  0.35885237  0.18830808  0.51867355     0.07000
C1577       C  0.33122427  0.19025478  0.53929965    -0.15100
C1578       C  0.33693550  0.20108654  0.56964275    -0.15100
C1579       C  0.37024604  0.21055778  0.57934258     0.07000
C1580       C  0.39729276  0.21050388  0.55784855    -0.15100
H1581       H  0.41318304  0.19760218  0.51200051     0.11000
H1582       H  0.30577066  0.18169601  0.53238180     0.11000
H1583       H  0.31565757  0.20074868  0.58575266     0.11000
H1584       H  0.42324984  0.21752203  0.56459063     0.11000
C1585       C  0.37563598  0.17889726  0.82373093    -0.15100
C1586       C  0.34299318  0.16526690  0.83080802     0.07000
C1587       C  0.32098691  0.15511003  0.80672605    -0.15100
C1588       C  0.33154928  0.15864076  0.77607510    -0.15100
C1589       C  0.36450791  0.17163872  0.76924741     0.07000
C1590       C  0.38634923  0.18179729  0.79334286    -0.15100
H1591       H  0.39337578  0.18667966  0.84175737     0.11000
H1592       H  0.29577224  0.14434530  0.81158494     0.11000
H1593       H  0.31432230  0.15058902  0.75778497     0.11000
H1594       H  0.41177764  0.19212309  0.78869390     0.11000
C1595       C  0.46336822  0.18846313  0.91969869    -0.15100
C1596       C  0.44901742  0.15502937  0.91657508     0.07000
C1597       C  0.46815436  0.12892561  0.90154223    -0.15100
C1598       C  0.50016908  0.13676437  0.88831060    -0.15100
C1599       C  0.51361989  0.17079739  0.89006594     0.07000
C1600       C  0.49530869  0.19621041  0.90672058    -0.15100
H1601       H  0.44943571  0.20899134  0.93147865     0.11000
H1602       H  0.45768580  0.10292452  0.89878064     0.11000
H1603       H  0.51370594  0.11658841  0.87572786     0.11000
H1604       H  0.50508926  0.22255498  0.90885852     0.11000
C1605       C  0.95577624  0.35158562  0.85916060    -0.15100
C1606       C  0.94516795  0.38651045  0.85643948     0.07000
C1607       C  0.96773466  0.41314963  0.86575799    -0.15100
C1608       C  0.99981683  0.40492807  0.87854030    -0.15100
C1609       C  0.00991055  0.36992587  0.88210883     0.07000
C1610       C  0.98779602  0.34339852  0.87178703    -0.15100
H1611       H  0.93901617  0.33045005  0.85217257     0.11000
H1612       H  0.96025178  0.44029066  0.86393250     0.11000
H1613       H  0.01636540  0.42591925  0.88623736     0.11000
H1614       H  0.99477028  0.31618866  0.87428340     0.11000
C1615       C  0.04509298  0.29002863  0.51758040    -0.15100
C1616       C  0.03487067  0.29230318  0.98671227     0.07000
C1617       C  0.99971660  0.29093899  0.97927381    -0.15100
C1618       C  0.97496397  0.29129811  0.50258649    -0.15100
C1619       C  0.98523844  0.29301251  0.53345767     0.07000
C1620       C  0.02031632  0.29040515  0.54091464    -0.15100
H1621       H  0.07207598  0.29216736  0.52370937     0.11000
H1622       H  0.99143785  0.29378391  0.95558849     0.11000
H1623       H  0.94805273  0.29435138  0.99647240     0.11000
H1624       H  0.02864184  0.29274334  0.56463827     0.11000
C1625       C  0.21621916  0.25415829  0.94956341    -0.15100
C1626       C  0.18565034  0.24991372  0.93261004     0.07000
C1627       C  0.18075174  0.21869455  0.91597679    -0.15100
C1628       C  0.20698818  0.19341231  0.91469814    -0.15100
C1629       C  0.23850544  0.19932125  0.92971499     0.07000
C1630       C  0.24238284  0.22933448  0.94790715    -0.15100
H1631       H  0.22079591  0.27764740  0.96285913     0.11000
H1632       H  0.15748629  0.21466415  0.90266643     0.11000
H1633       H  0.20352296  0.17045264  0.90045772     0.11000
H1634       H  0.26635473  0.23424694  0.95997172     0.11000
C1635       C  0.13790319  0.35908470  0.54346089    -0.15100
C1636       C  0.15710080  0.37394200  0.51956986     0.07000
C1637       C  0.18828902  0.39082861  0.52641368    -0.15100
C1638       C  0.19939889  0.39391440  0.55700157    -0.15100
C1639       C  0.17980538  0.37947718  0.58099352     0.07000
C1640       C  0.14924545  0.36153802  0.57376596    -0.15100
H1641       H  0.11394523  0.34556655  0.53868644     0.11000
H1642       H  0.20345900  0.40247951  0.00825282     0.11000
H1643       H  0.22292928  0.40807924  0.56191632     0.11000
H1644       H  0.13340868  0.35022242  0.59165290     0.11000
C1645       C  0.11801562  0.35033043  0.81110761    -0.15100
C1646       C  0.14544920  0.33877227  0.82952683     0.07000
C1647       C  0.17881874  0.33739026  0.81708947    -0.15100
C1648       C  0.18468084  0.34819651  0.78677211    -0.15100
C1649       C  0.15740626  0.36152118  0.76913534     0.07000
C1650       C  0.12403819  0.36205239  0.78133967    -0.15100
H1651       H  0.09211007  0.35199218  0.82025646     0.11000
H1652       H  0.20033406  0.32863452  0.83097751     0.11000
H1653       H  0.21062457  0.34773876  0.77762739     0.11000
H1654       H  0.10266399  0.37212104  0.76794679     0.11000
C1655       C  0.11970705  0.47845390  0.89142775    -0.15100
C1656       C  0.14431702  0.45890464  0.90754001     0.07000
C1657       C  0.17712380  0.47305794  0.91278852    -0.15100
C1658       C  0.18540576  0.50626581  0.90174470    -0.15100
C1659       C  0.16134975  0.52525989  0.88439713     0.07000
C1660       C  0.12834406  0.51118252  0.87949242    -0.15100
H1661       H  0.09430866  0.46779333  0.88706473     0.11000
H1662       H  0.19638992  0.45823956  0.92521865     0.11000
H1663       H  0.21109737  0.51643837  0.90556152     0.11000
H1664       H  0.10940115  0.52535583  0.86611596     0.11000
loop_ 
_geom_bond_atom_site_label_1 
_geom_bond_atom_site_label_2 
_geom_bond_distance 
_geom_bond_site_symmetry_2 
_ccdc_geom_bond_type 
O1           C16   1.259       .  A
O1           Al9   1.879       .  S
C2           O12   1.261       .  A
C2            O3   1.268       .  A
C2          C814   1.470       .  S
O3           Al5   1.930       .  S
O4            C6   1.256       .  A
O4           Al5   1.886       .  S
Al5          O13   1.883       .  S
Al5          O15   1.921       .  S
Al5          O14   1.783       .  S
C6           O19   1.260       .  A
C6          C824   1.470       .  S
O7           C17   1.259       .  A
O7           Al9   1.893       .  S
O8           C21   1.264       .  A
O8          Al18   1.910       .  S
Al9          O22   1.911       .  S
Al9          O19   1.916       .  S
Al9          O14   1.777       .  S
O10          C17   1.265       .  A
O10         Al18   1.924       .  S
O11          C20   1.262       .  A
O11         Al18   1.932       .  S
O12         Al18   1.874       .  S
O13          C20   1.256       .  A
O14         Al18   1.789       .  S
O15          C16   1.264       .  A
C16        C1636   1.471       .  S
C17         C777   1.478       .  S
C20         C794   1.485       .  S
C21          O22   1.265       .  A
C21         C784   1.462       .  S
O23          C38   1.260       .  A
O23         Al31   1.910       .  S
C24          O34   1.257       .  A
C24          O25   1.262       .  A
C24        C1576   1.456       .  S
O25         Al27   1.919       .  S
O26          C28   1.262       .  A
O26         Al27   1.885       .  S
Al27         O35   1.907       .  S
Al27         O37   1.911       .  S
Al27         O36   1.773       .  S
C28          O41   1.271       .  A
C28         C737   1.471       .  S
O29          C39   1.262       .  A
O29         Al31   1.915       .  S
O30          C43   1.258       .  A
O30         Al40   1.864       .  S
Al31         O44   1.934       .  S
Al31         O41   1.946       .  S
Al31         O36   1.784       .  S
O32          C39   1.260       .  A
O32         Al40   1.898       .  S
O33          C42   1.267       .  A
O33         Al40   1.928       .  S
O34         Al40   1.892       .  S
O35          C42   1.263       .  A
O36         Al40   1.773       .  S
O37          C38   1.260       .  A
C38         C724   1.475       .  S
C39         C797   1.476       .  S
C42         C764   1.480       .  S
C43          O44   1.268       .  A
C43         C754   1.474       .  S
O45          C60   1.259       .  A
O45         Al53   1.873       .  S
C46          O56   1.260       .  A
C46          O47   1.267       .  A
C46         C704   1.470       .  S
O47         Al49   1.933       .  S
O48          C50   1.256       .  A
O48         Al49   1.878       .  S
Al49         O57   1.882       .  S
Al49         O59   1.934       .  S
Al49         O58   1.778       .  S
C50          O63   1.262       .  A
C50         C717   1.472       .  S
O51          C61   1.262       .  A
O51         Al53   1.902       .  S
O52          C65   1.264       .  A
O52         Al62   1.905       .  S
Al53         O66   1.912       .  S
Al53         O63   1.928       .  S
Al53         O58   1.775       .  S
O54          C61   1.266       .  A
O54         Al62   1.925       .  S
O55          C64   1.264       .  A
O55         Al62   1.935       .  S
O56         Al62   1.871       .  S
O57          C64   1.257       .  A
O58         Al62   1.783       .  S
O59          C60   1.266       .  A
C60         C697   1.473       .  S
C61         C674   1.482       .  S
C64         C684   1.482       .  S
C65          O66   1.265       .  A
C65         C664   1.460       .  S
O67          C82   1.257       .  A
O67         Al75   1.892       .  S
C68          O78   1.259       .  A
C68          O69   1.263       .  A
C68         C634   1.462       .  S
O69         Al71   1.917       .  S
O70          C72   1.262       .  A
O70         Al71   1.887       .  S
Al71         O79   1.903       .  S
Al71         O81   1.905       .  S
Al71         O80   1.779       .  S
C72          O85   1.268       .  A
C72         C734   1.471       .  S
O73          C83   1.258       .  A
O73         Al75   1.909       .  S
O74          C87   1.260       .  A
O74         Al84   1.868       .  S
Al75         O88   1.944       .  S
Al75         O85   1.935       .  S
Al75         O80   1.793       .  S
O76          C83   1.256       .  A
O76         Al84   1.886       .  S
O77          C86   1.263       .  A
O77         Al84   1.915       .  S
O78         Al84   1.896       .  S
O79          C86   1.262       .  A
O80         Al84   1.779       .  S
O81          C82   1.258       .  A
C82         C624   1.470   1_565  S
C83         C687   1.471       .  S
C86         C654   1.479       .  S
C87          O88   1.270       .  A
C87         C644   1.482       .  S
O89         C104   1.259       .  A
O89         Al97   1.898       .  S
C90         O100   1.259       .  A
C90          O91   1.263       .  A
C90         C597   1.465       .  S
O91         Al93   1.917       .  S
O92          C94   1.262       .  A
O92         Al93   1.886       .  S
Al93        O101   1.900       .  S
Al93        O103   1.907       .  S
Al93        O102   1.777       .  S
C94         O107   1.268       .  A
C94         C564   1.470       .  S
O95         C105   1.258       .  A
O95         Al97   1.909       .  S
O96         C109   1.260       .  A
O96        Al106   1.869       .  S
Al97        O110   1.941       .  S
Al97        O107   1.934       .  S
Al97        O102   1.793       .  S
O98         C105   1.257       .  A
O98        Al106   1.886       .  S
O99         C108   1.264       .  A
O99        Al106   1.923       .  S
O100       Al106   1.901       .  S
O101        C108   1.262       .  A
O102       Al106   1.781       .  S
O103        C104   1.259       .  A
C104        C574   1.472       .  S
C105        C584   1.471       .  S
C108        C614   1.480       .  S
C109        O110   1.270       .  A
C109        C604   1.480       .  S
O111        C126   1.260       .  A
O111       Al119   1.882       .  S
C112        O122   1.260       .  A
C112        O113   1.267       .  A
C112        C544   1.471       .  S
O113       Al115   1.931       .  S
O114        C116   1.257       .  A
O114       Al115   1.883       .  S
Al115       O123   1.877       .  S
Al115       O125   1.923       .  S
Al115       O124   1.783       .  S
C116        O129   1.262       .  A
C116        C554   1.475       .  S
O117        C127   1.260       .  A
O117       Al119   1.897       .  S
O118        C131   1.263       .  A
O118       Al128   1.905       .  S
Al119       O132   1.912       .  S
Al119       O129   1.918       .  S
Al119       O124   1.776       .  S
O120        C127   1.264       .  A
O120       Al128   1.921       .  S
O121        C130   1.262       .  A
O121       Al128   1.931       .  S
O122       Al128   1.871       .  S
O123        C130   1.256       .  A
O124       Al128   1.788       .  S
O125        C126   1.263       .  A
C126        C534   1.477   1_554  S
C127        C524   1.480   1_655  S
C130        C587   1.480       .  S
C131        O132   1.265       .  A
C131        C787   1.461       .  S
O133        C148   1.260       .  A
O133       Al141   1.880       .  S
C134        O144   1.261       .  A
C134        O135   1.268       .  A
C134        C504   1.473       .  S
O135       Al137   1.930       .  S
O136        C138   1.256       .  A
O136       Al137   1.888       .  S
Al137       O145   1.881       .  S
Al137       O147   1.923       .  S
Al137       O146   1.785       .  S
C138        O151   1.260       .  A
C138        C514   1.473       .  S
O139        C149   1.259       .  A
O139       Al141   1.895       .  S
O140        C153   1.264       .  A
O140       Al150   1.909       .  S
Al141       O154   1.911       .  S
Al141       O151   1.914       .  S
Al141       O146   1.778       .  S
O142        C149   1.264       .  A
O142       Al150   1.921       .  S
O143        C152   1.261       .  A
O143       Al150   1.933       .  S
O144       Al150   1.875       .  S
O145        C152   1.255       .  A
O146       Al150   1.792       .  S
O147        C148   1.264       .  A
C148       C1326   1.474       .  S
C149        C474   1.479   1_655  S
C152        C484   1.485       .  S
C153        O154   1.265       .  A
C153        C667   1.462       .  S
O155        C170   1.259       .  A
O155       Al163   1.906       .  S
C156        O166   1.258       .  A
C156        O157   1.262       .  A
C156       C1276   1.462       .  S
O157       Al159   1.916       .  S
O158        C160   1.263       .  A
O158       Al159   1.889       .  S
Al159       O167   1.912       .  S
Al159       O169   1.910       .  S
Al159       O168   1.776       .  S
C160        O173   1.271       .  A
C160        C567   1.471       .  S
O161        C171   1.261       .  A
O161       Al163   1.916       .  S
O162        C175   1.258       .  A
O162       Al172   1.869       .  S
Al163       O176   1.938       .  S
Al163       O173   1.943       .  S
Al163       O168   1.786       .  S
O164        C171   1.259       .  A
O164       Al172   1.892       .  S
O165        C174   1.266       .  A
O165       Al172   1.920       .  S
O166       Al172   1.900       .  S
O167        C174   1.265       .  A
O168       Al172   1.772       .  S
O169        C170   1.260       .  A
C170        C434   1.475   1_565  S
C171        C487   1.476       .  S
C174        C464   1.483       .  S
C175        O176   1.268       .  A
C175        C454   1.479       .  S
O177        C192   1.259       .  A
O177       Al185   1.878       .  S
C178        O188   1.262       .  A
C178        O179   1.268       .  A
C178        C747   1.474       .  S
O179       Al181   1.924       .  S
O180        C182   1.256       .  A
O180       Al181   1.887       .  S
Al181       O189   1.886       .  S
Al181       O191   1.914       .  S
Al181       O190   1.786       .  S
C182        O195   1.258       .  A
C182        C627   1.471       .  S
O183        C193   1.259       .  A
O183       Al185   1.894       .  S
O184        C197   1.264       .  A
O184       Al194   1.912       .  S
Al185       O198   1.908       .  S
Al185       O195   1.907       .  S
Al185       O190   1.779       .  S
O186        C193   1.264       .  A
O186       Al194   1.925       .  S
O187        C196   1.260       .  A
O187       Al194   1.924       .  S
O188       Al194   1.875       .  S
O189        C196   1.256       .  A
O190       Al194   1.792       .  S
O191        C192   1.263       .  A
C192        C757   1.471       .  S
C193        C617   1.481       .  S
C196        C414   1.483       .  S
C197        O198   1.264       .  A
C197        C424   1.463       .  S
O199        C214   1.258       .  A
O199       Al207   1.908       .  S
C200        O210   1.258       .  A
C200        O201   1.261       .  A
C200        C817   1.464       .  S
O201       Al203   1.914       .  S
O202        C204   1.263       .  A
O202       Al203   1.882       .  S
Al203       O211   1.906       .  S
Al203       O213   1.907       .  S
Al203       O212   1.775       .  S
C204        O217   1.271       .  A
C204        C404   1.468       .  S
O205        C215   1.260       .  A
O205       Al207   1.911       .  S
O206        C219   1.258       .  A
O206       Al216   1.868       .  S
Al207       O220   1.931       .  S
Al207       O217   1.945       .  S
Al207       O212   1.786       .  S
O208        C215   1.259       .  A
O208       Al216   1.892       .  S
O209        C218   1.267       .  A
O209       Al216   1.923       .  S
O210       Al216   1.901       .  S
O211        C218   1.265       .  A
O212       Al216   1.772       .  S
O213        C214   1.258       .  A
C214        C714   1.469       .  S
C215        C417   1.473       .  S
C218        C527   1.479       .  S
C219        O220   1.267       .  A
C219        C807   1.478       .  S
O221        C236   1.258       .  A
O221       Al229   1.900       .  S
C222        O232   1.259       .  A
C222        O223   1.263       .  A
C222        C547   1.462       .  S
O223       Al225   1.918       .  S
O224        C226   1.262       .  A
O224       Al225   1.883       .  S
Al225       O233   1.899       .  S
Al225       O235   1.904       .  S
Al225       O234   1.776       .  S
C226        O239   1.268       .  A
C226        C394   1.467       .  S
O227        C237   1.258       .  A
O227       Al229   1.912       .  S
O228        C241   1.259       .  A
O228       Al238   1.864       .  S
Al229       O242   1.943       .  S
Al229       O239   1.934       .  S
Al229       O234   1.791       .  S
O230        C237   1.256       .  A
O230       Al238   1.882       .  S
O231        C240   1.263       .  A
O231       Al238   1.917       .  S
O232       Al238   1.897       .  S
O233        C240   1.261       .  A
O234       Al238   1.779       .  S
O235        C236   1.258       .  A
C236        C517   1.473       .  S
C237        C384   1.472       .  S
C240        C774   1.477       .  S
C241        O242   1.271       .  A
C241        C537   1.479       .  S
O243        C258   1.260       .  A
O243       Al251   1.879       .  S
C244        O254   1.259       .  A
C244        O245   1.265       .  A
C244        C594   1.473       .  S
O245       Al247   1.928       .  S
O246        C248   1.256       .  A
O246       Al247   1.885       .  S
Al247       O255   1.878       .  S
Al247       O257   1.936       .  S
Al247       O256   1.779       .  S
C248        O261   1.262       .  A
C248        C437   1.471       .  S
O249        C259   1.264       .  A
O249       Al251   1.903       .  S
O250        C263   1.262       .  A
O250       Al260   1.910       .  S
Al251       O264   1.911       .  S
Al251       O261   1.931       .  S
Al251       O256   1.777       .  S
O252        C259   1.267       .  A
O252       Al260   1.924       .  S
O253        C262   1.265       .  A
O253       Al260   1.934       .  S
O254       Al260   1.878       .  S
O255        C262   1.258       .  A
O256       Al260   1.780       .  S
O257        C258   1.266       .  A
C258        C607   1.477       .  S
C259        C767   1.483       .  S
C262        C387   1.481       .  S
C263        O264   1.263       .  A
C263        C427   1.464       .  S
O265        C280   1.260       .  A
O265       Al273   1.880       .  S
C266        O276   1.260       .  A
C266        O267   1.269       .  A
C266        C447   1.472       .  S
O267       Al269   1.934       .  S
O268        C270   1.257       .  A
O268       Al269   1.891       .  S
Al269       O277   1.885       .  S
Al269       O279   1.927       .  S
Al269       O278   1.783       .  S
C270        O283   1.259       .  A
C270        C577   1.475       .  S
O271        C281   1.259       .  A
O271       Al273   1.892       .  S
O272        C285   1.262       .  A
O272       Al282   1.903       .  S
Al273       O286   1.912       .  S
Al273       O283   1.912       .  S
Al273       O278   1.777       .  S
O274        C281   1.265       .  A
O274       Al282   1.927       .  S
O275        C284   1.261       .  A
O275       Al282   1.926       .  S
O276       Al282   1.867       .  S
O277        C284   1.256       .  A
O278       Al282   1.790       .  S
O279        C280   1.265       .  A
C280        C457   1.477       .  S
C281        C657   1.479       .  S
C284        C364   1.483       .  S
C285        O286   1.265       .  A
C285        C377   1.459       .  S
O287        C302   1.256       .  A
O287       Al295   1.894       .  S
C288        O298   1.258       .  A
C288        O289   1.263       .  A
C288        C507   1.465       .  S
O289       Al291   1.923       .  S
O290        C292   1.262       .  A
O290       Al291   1.884       .  S
Al291       O299   1.903       .  S
Al291       O301   1.905       .  S
Al291       O300   1.779       .  S
C292        O305   1.268       .  A
C292        C397   1.468       .  S
O293        C303   1.258       .  A
O293       Al295   1.909       .  S
O294        C307   1.259       .  A
O294       Al304   1.863       .  S
Al295       O308   1.940       .  S
Al295       O305   1.933       .  S
Al295       O300   1.794       .  S
O296        C303   1.256       .  A
O296       Al304   1.888       .  S
O297        C306   1.264       .  A
O297       Al304   1.923       .  S
O298       Al304   1.896       .  S
O299        C306   1.262       .  A
O300       Al304   1.780       .  S
O301        C302   1.257       .  A
C302        C557   1.467       .  S
C303        C367   1.473       .  S
C306        C677   1.481       .  S
C307        O308   1.270       .  A
C307        C497   1.479       .  S
O309        C324   1.260       .  A
O309       Al317   1.877       .  S
C310        O320   1.259       .  A
C310        O311   1.267       .  A
C310        C637   1.470       .  S
O311       Al313   1.930       .  S
O312        C314   1.256       .  A
O312       Al313   1.885       .  S
Al313       O321   1.885       .  S
Al313       O323   1.940       .  S
Al313       O322   1.776       .  S
C314        O327   1.261       .  A
C314        C727   1.474       .  S
O315        C325   1.263       .  A
O315       Al317   1.905       .  S
O316        C329   1.262       .  A
O316       Al326   1.902       .  S
Al317       O330   1.910       .  S
Al317       O327   1.929       .  S
Al317       O322   1.777       .  S
O318        C325   1.267       .  A
O318       Al326   1.926       .  S
O319        C328   1.264       .  A
O319       Al326   1.936       .  S
O320       Al326   1.872       .  S
O321        C328   1.258       .  A
O322       Al326   1.784       .  S
O323        C324   1.267       .  A
C324        C647   1.479       .  S
C325        C467   1.483       .  S
C328        C354   1.485       .  S
C329        O330   1.265       .  A
C329        C374   1.458       .  S
O331        C346   1.259       .  A
O331       Al339   1.902       .  S
C332        O342   1.259       .  A
C332        O333   1.263       .  A
C332        C707   1.464       .  S
O333       Al335   1.914       .  S
O334        C336   1.261       .  A
O334       Al335   1.882       .  S
Al335       O343   1.900       .  S
Al335       O345   1.902       .  S
Al335       O344   1.777       .  S
C336        O349   1.268       .  A
C336        C407   1.467       .  S
O337        C347   1.260       .  A
O337       Al339   1.917       .  S
O338        C351   1.260       .  A
O338       Al348   1.867       .  S
Al339       O352   1.937       .  S
Al339       O349   1.932       .  S
Al339       O344   1.791       .  S
O340        C347   1.257       .  A
O340       Al348   1.888       .  S
O341        C350   1.264       .  A
O341       Al348   1.921       .  S
O342       Al348   1.899       .  S
O343        C350   1.261       .  A
O344       Al348   1.778       .  S
O345        C346   1.258       .  A
C346        C827   1.476       .  S
C347        C357   1.477       .  S
C350        C477   1.478       .  S
C351        O352   1.269       .  A
C351        C694   1.479       .  S
C353        C354   1.405       .  A
C353        C358   1.393       .  A
C353        H359   1.083       .  S
C354        C355   1.410       .  A
C355        C356   1.407       .  A
C355        H360   1.083       .  S
C356        C357   1.404       .  A
C356        H361   1.083       .  S
C357        C358   1.403       .  A
C358        H362   1.084       .  S
C363        C364   1.409       .  A
C363        C368   1.404       .  A
C363        H369   1.083       .  S
C364        C365   1.405       .  A
C365        C366   1.393       .  A
C365        H370   1.083       .  S
C366        C367   1.402       .  A
C366        H371   1.084       .  S
C367        C368   1.403       .  A
C368        H372   1.083       .  S
C373        C374   1.400       .  A
C373        C378   1.395       .  A
C373        H379   1.081       .  S
C374        C375   1.402       .  A
C375        C376   1.398       .  A
C375        H380   1.085       .  S
C376        C377   1.401       .  A
C376        H381   1.081       .  S
C377        C378   1.402       .  A
C378        H382   1.085       .  S
C383        C384   1.403       .  A
C383        C388   1.405       .  A
C383        H389   1.083       .  S
C384        C385   1.402       .  A
C385        C386   1.391       .  A
C385        H390   1.084       .  S
C386        C387   1.405       .  A
C386        H391   1.083       .  S
C387        C388   1.409       .  A
C388        H392   1.083       .  S
C393        C394   1.403       .  A
C393        C398   1.398       .  A
C393        H399   1.085       .  S
C394        C395   1.403       .  A
C395        C396   1.397       .  A
C395        H400   1.083       .  S
C396        C397   1.403       .  A
C396        H401   1.085       .  S
C397        C398   1.403       .  A
C398        H402   1.083       .  S
C403        C404   1.404       .  A
C403        C408   1.397       .  A
C403        H409   1.085       .  S
C404        C405   1.404       .  A
C405        C406   1.398       .  A
C405        H410   1.081       .  S
C406        C407   1.403       .  A
C406        H411   1.085       .  S
C407        C408   1.402       .  A
C408        H412   1.082       .  S
C413        C414   1.405       .  A
C413        C418   1.393       .  A
C413        H419   1.083       .  S
C414        C415   1.409       .  A
C415        C416   1.405       .  A
C415        H420   1.083       .  S
C416        C417   1.403       .  A
C416        H421   1.083       .  S
C417        C418   1.402       .  A
C418        H422   1.084       .  S
C423        C424   1.403       .  A
C423        C428   1.399       .  A
C423        H429   1.084       .  S
C424        C425   1.401       .  A
C425        C426   1.398       .  A
C425        H430   1.083       .  S
C426        C427   1.403       .  A
C426        H431   1.084       .  S
C427        C428   1.401       .  A
C428        H432   1.082       .  S
C433        C434   1.405       .  A
C433        C438   1.395       .  A
C433        H439   1.082       .  S
C434        C435   1.405       .  A
C435        C436   1.402       .  A
C435        H440   1.085       .  S
C436        C437   1.404       .  A
C436        H441   1.081       .  S
C437        C438   1.402       .  A
C438        H442   1.086       .  S
C443        C444   1.402       .  A
C443        C448   1.401       .  A
C443       H1281   1.084       .  S
C444        C988   1.462   1_554  S
C444        C445   1.399       .  A
C445        C446   1.390       .  A
C445        H450   1.083       .  S
C446        C447   1.405       .  A
C446        H451   1.084       .  S
C447        C448   1.406       .  A
C448        H452   1.082       .  S
H449       C1275   1.084       .  S
C453        C454   1.406       .  A
C453        C458   1.391       .  A
C453        H459   1.083       .  S
C454        C455   1.406       .  A
C455        C456   1.404       .  A
C455        H460   1.083       .  S
C456        C457   1.407       .  A
C456        H461   1.083       .  S
C457        C458   1.402       .  A
C458        H462   1.084       .  S
C463        C464   1.406       .  A
C463        C468   1.404       .  A
C463        H469   1.083       .  S
C464        C465   1.406       .  A
C465        C466   1.393       .  A
C465        H470   1.082       .  S
C466        C467   1.404       .  A
C466        H471   1.083       .  S
C467        C468   1.408       .  A
C468        H472   1.082       .  S
C473        C474   1.404       .  A
C473        C478   1.394       .  A
C473        H479   1.083       .  S
C474        C475   1.407       .  A
C475        C476   1.400       .  A
C475        H480   1.082       .  S
C476        C477   1.405       .  A
C476        H481   1.083       .  S
C477        C478   1.405       .  A
C478        H482   1.082       .  S
C483        C484   1.410       .  A
C483        C488   1.408       .  A
C483        H489   1.083       .  S
C484        C485   1.405       .  A
C485        C486   1.391       .  A
C485        H490   1.083       .  S
C486        C487   1.402       .  A
C486        H491   1.084       .  S
C487        C488   1.405       .  A
C488        H492   1.083       .  S
C493        C494   1.401       .  A
C493        C498   1.389       .  A
C493        H499   1.083       .  S
C494        C980   1.474   1_554  S
C494        C495   1.407       .  A
C495        C496   1.405       .  A
C495       H1332   1.082       .  S
C496        C497   1.406       .  A
C496        H501   1.083       .  S
C497        C498   1.406       .  A
C498        H502   1.083       .  S
H500       C1327   1.082       .  S
C503        C504   1.405       .  A
C503        C508   1.400       .  A
C503        H509   1.085       .  S
C504        C505   1.405       .  A
C505        C506   1.392       .  A
C505        H510   1.082       .  S
C506        C507   1.400       .  A
C506        H511   1.085       .  S
C507        C508   1.403       .  A
C508        H512   1.082       .  S
C513        C514   1.404       .  A
C513        C518   1.399       .  A
C513        H519   1.084       .  S
C514        C515   1.403       .  A
C515        C516   1.400       .  A
C515        H520   1.084       .  S
C516        C517   1.404       .  A
C516        H521   1.084       .  S
C517        C518   1.403       .  A
C518        H522   1.084       .  S
C523        C524   1.404       .  A
C523        C528   1.393       .  A
C523        H529   1.083       .  S
C524        C525   1.408       .  A
C525        C526   1.402       .  A
C525        H530   1.082       .  S
C526        C527   1.405       .  A
C526        H531   1.083       .  S
C527        C528   1.405       .  A
C528        H532   1.082       .  S
C533        C538   1.390       .  A
C533       C1366   1.402       .  A
C533        H539   1.084       .  S
C534        C535   1.407       .  A
C534       C1365   1.402       .  A
C535       C1368   1.404       .  A
C535        H540   1.083   1_556  S
C536        C537   1.405       .  A
C536       C1367   1.404       .  A
C536        H541   1.083       .  S
C537        C538   1.406       .  A
C538        H542   1.084       .  S
C543        C544   1.406       .  A
C543        C548   1.401       .  A
C543        H549   1.082       .  S
C544        C545   1.404       .  A
C545        C546   1.390       .  A
C545        H550   1.084       .  S
C546        C547   1.399       .  A
C546        H551   1.083       .  S
C547        C548   1.402       .  A
C548        H552   1.084       .  S
C553        C554   1.405       .  A
C553        C558   1.400       .  A
C553        H559   1.084       .  S
C554        C555   1.405       .  A
C555        C556   1.397       .  A
C555        H560   1.084       .  S
C556        C557   1.401       .  A
C556        H561   1.084       .  S
C557        C558   1.402       .  A
C558        H562   1.083       .  S
C563        C564   1.403       .  A
C563        C568   1.399   1_545  A
C563        H569   1.083       .  S
C564        C565   1.403       .  A
C565       C1398   1.398   1_554  A
C565       H1402   1.084   1_554  S
C566        C567   1.404   1_545  A
C566       C1397   1.398       .  A
C566        H571   1.083       .  S
C567       C1400   1.404       .  A
C568       C1399   1.404   1_554  A
C568        H572   1.084       .  S
H570       C1397   1.084       .  S
C573        C574   1.404       .  A
C573        C578   1.401   1_545  A
C573        H579   1.083       .  S
C574        C575   1.403       .  A
C575        C576   1.399   1_545  A
C575        H580   1.084       .  S
C576        C577   1.404       .  A
C576        H581   1.083       .  S
C577        C578   1.405       .  A
C578        H582   1.084       .  S
C583        C584   1.404       .  A
C583        C588   1.405       .  A
C583        H589   1.083       .  S
C584        C585   1.401       .  A
C585        C586   1.390       .  A
C585        H590   1.084       .  S
C586        C587   1.405       .  A
C586        H591   1.083       .  S
C587        C588   1.409       .  A
C588        H592   1.083       .  S
C593        C594   1.403       .  A
C593        C598   1.390       .  A
C593        H599   1.085       .  S
C594        C595   1.407       .  A
C595       C1428   1.402       .  A
C595        H600   1.082       .  S
C596        C597   1.403   1_556  A
C596       C1427   1.402       .  A
C596        H601   1.085       .  S
C597       C1430   1.400   1_554  A
C598       C1429   1.400       .  A
C598        H602   1.083       .  S
C603        C604   1.406       .  A
C603        C608   1.390       .  A
C603        H609   1.083       .  S
C604        C605   1.407       .  A
C605        C606   1.405       .  A
C605        H610   1.084       .  S
C606        C607   1.406       .  A
C606        H611   1.082       .  S
C607        C608   1.402       .  A
C608        H612   1.084       .  S
C613        C614   1.405       .  A
C613        C618   1.400       .  A
C613        H619   1.083       .  S
C614        C615   1.406       .  A
C615        C616   1.396       .  A
C615        H620   1.082       .  S
C616        C617   1.405       .  A
C616        H621   1.083       .  S
C617        C618   1.407       .  A
C618        H622   1.082       .  S
C623        C624   1.403       .  A
C623        C628   1.399       .  A
C623        H629   1.084       .  S
C624        C625   1.403       .  A
C625        C626   1.398       .  A
C625        H630   1.083       .  S
C626        C627   1.403       .  A
C626        H631   1.084       .  S
C627        C628   1.403       .  A
C628        H632   1.083       .  S
C633        C638   1.399       .  A
C633       C1466   1.402       .  A
C633        H639   1.083       .  S
C634        C635   1.400   1_554  A
C634       C1465   1.402   1_554  A
C635       C1468   1.391       .  A
C635        H640   1.084   1_556  S
C636        C637   1.404       .  A
C636       C1467   1.391       .  A
C636        H641   1.083       .  S
C637        C638   1.405       .  A
C638        H642   1.083       .  S
C643        C644   1.407       .  A
C643        C648   1.406       .  A
C643        H649   1.083       .  S
C644        C645   1.406       .  A
C645        C646   1.390       .  A
C645        H650   1.083       .  S
C646        C647   1.402       .  A
C646        H651   1.083       .  S
C647        C648   1.407       .  A
C648        H652   1.083       .  S
C653        C654   1.406       .  A
C653        C658   1.394       .  A
C653        H659   1.082       .  S
C654        C655   1.404       .  A
C655        C656   1.400       .  A
C655        H660   1.083       .  S
C656        C657   1.407       .  A
C656        H661   1.082       .  S
C657        C658   1.403       .  A
C658        H662   1.083       .  S
C663        C664   1.403       .  A
C663        C668   1.399   1_455  A
C663        H669   1.084   1_455  S
C664        C665   1.400       .  A
C665       C1498   1.397   1_554  A
C665       H1502   1.082   1_554  S
C666        C667   1.403   1_455  A
C666       C1497   1.397       .  A
C666        H671   1.084       .  S
C667       C1500   1.401       .  A
C668       C1499   1.401   1_554  A
C668        H672   1.082       .  S
H670       C1497   1.082       .  S
C673        C674   1.405   1_655  A
C673        C678   1.395       .  A
C673        H679   1.083       .  S
C674        C675   1.407       .  A
C675        C676   1.402   1_455  A
C675        H680   1.082       .  S
C676        C677   1.406       .  A
C676        H681   1.083       .  S
C677        C678   1.405       .  A
C678        H682   1.082       .  S
C683        C684   1.405       .  A
C683        C688   1.392       .  A
C683        H689   1.083       .  S
C684        C685   1.409       .  A
C685        C686   1.404       .  A
C685        H690   1.083       .  S
C686        C687   1.403       .  A
C686        H691   1.083       .  S
C687        C688   1.402       .  A
C688        H692   1.084       .  S
C693        C694   1.407       .  A
C693       C1530   1.404       .  A
C693        H699   1.083       .  S
C694        C695   1.406       .  A
C695        C696   1.389       .  A
C695        H700   1.083       .  S
C696       C1529   1.402       .  A
C696        H701   1.084       .  S
C697        C698   1.406   1_554  A
C697       C1528   1.402   1_554  A
C698       C1525   1.404       .  A
C698        H702   1.083   1_556  S
C703        C704   1.405       .  A
C703        C708   1.402       .  A
C703        H709   1.082       .  S
C704        C705   1.403       .  A
C705        C706   1.389       .  A
C705        H710   1.085       .  S
C706        C707   1.400       .  A
C706        H711   1.082       .  S
C707        C708   1.404       .  A
C708        H712   1.085       .  S
C713        C714   1.403       .  A
C713        C718   1.392       .  A
C713        H719   1.084       .  S
C714        C715   1.403       .  A
C715        C716   1.402       .  A
C715        H720   1.084       .  S
C716        C717   1.406       .  A
C716        H721   1.083       .  S
C717        C718   1.402       .  A
C718        H722   1.084       .  S
C723        C724   1.405       .  A
C723        C728   1.404   1_545  A
C723        H729   1.083       .  S
C724        C725   1.404   1_545  A
C725        C726   1.394       .  A
C725        H730   1.084       .  S
C726        C727   1.402       .  A
C726        H731   1.083       .  S
C727        C728   1.406       .  A
C728        H732   1.084       .  S
C733        C734   1.403   1_545  A
C733        C738   1.398       .  A
C733        H739   1.082       .  S
C734        C735   1.404   1_554  A
C735       C1568   1.399   1_565  A
C735        H740   1.085       .  S
C736        C737   1.404       .  A
C736       C1567   1.399   1_545  A
C736        H741   1.082       .  S
C737       C1570   1.404       .  A
C738       C1569   1.404   1_554  A
C738        H742   1.085       .  S
C743        C744   1.397       .  A
C743        C748   1.391       .  A
C743        H749   1.084       .  S
C744        C856   1.456   1_554  S
C744        C745   1.400       .  A
C745        C746   1.399       .  A
C745        H750   1.083       .  S
C746        C747   1.407       .  A
C746        H751   1.083       .  S
C747        C748   1.406       .  A
C748        H752   1.083       .  S
C753        C754   1.406       .  A
C753        C758   1.389       .  A
C753        H759   1.084       .  S
C754        C755   1.404       .  A
C755        C756   1.401       .  A
C755        H760   1.084       .  S
C756        C757   1.406       .  A
C756        H761   1.083       .  S
C757        C758   1.401       .  A
C758        H762   1.083       .  S
C763        C764   1.404       .  A
C763        C768   1.395       .  A
C763        H769   1.082       .  S
C764        C765   1.406       .  A
C765        C766   1.403       .  A
C765        H770   1.083       .  S
C766        C767   1.407       .  A
C766        H771   1.082       .  S
C767        C768   1.405       .  A
C768        H772   1.083       .  S
C773        C774   1.406       .  A
C773        C778   1.394       .  A
C773        H779   1.082       .  S
C774        C775   1.405       .  A
C775        C776   1.399       .  A
C775        H780   1.083       .  S
C776        C777   1.406   1_655  A
C776        H781   1.082   1_655  S
C777        C778   1.404   1_455  A
C778        H782   1.083       .  S
C783        C788   1.398       .  A
C783       C1616   1.401   1_554  A
C783        H789   1.084       .  S
C784        C785   1.403   1_455  A
C784       C1615   1.401       .  A
C785       C1618   1.397       .  A
C785        H790   1.083       .  S
C786        C787   1.400       .  A
C786       C1617   1.397   1_554  A
C786       H1623   1.084   1_554  S
C787        C788   1.403   1_655  A
C788        H792   1.083       .  S
H791       C1618   1.084       .  S
C793        C794   1.405       .  A
C793        C798   1.393       .  A
C793        H799   1.083       .  S
C794        C795   1.409       .  A
C795        C796   1.406       .  A
C795        H800   1.083       .  S
C796        C797   1.404       .  A
C796        H801   1.083       .  S
C797        C798   1.402       .  A
C798        H802   1.084       .  S
C803        C804   1.401       .  A
C803        C808   1.391       .  A
C803        H809   1.085       .  S
C804        C848   1.471   1_554  S
C804        C805   1.405       .  A
C805        C806   1.401       .  A
C805       H1642   1.083       .  S
C806        C807   1.406       .  A
C806        H811   1.084       .  S
C807        C808   1.407       .  A
C808        H812   1.083       .  S
H810       C1637   1.083       .  S
C813        C814   1.404       .  A
C813        C818   1.390       .  A
C813        H819   1.084       .  S
C814        C815   1.405       .  A
C815        C816   1.401       .  A
C815        H820   1.083       .  S
C816        C817   1.403       .  A
C816        H821   1.083       .  S
C817        C818   1.400       .  A
C818        H822   1.084       .  S
C823        C824   1.401       .  A
C823        C828   1.400       .  A
C823        H829   1.084       .  S
C824        C825   1.403       .  A
C825        C826   1.399       .  A
C825        H830   1.083       .  S
C826        C827   1.404       .  A
C826        H831   1.084       .  S
C827        C828   1.407       .  A
C828        H832   1.083       .  S
O833        C848   1.259       .  A
O833       Al841   1.879       .  S
C834        O844   1.261       .  A
C834        O835   1.268       .  A
C834       C1646   1.470       .  S
O835       Al837   1.930       .  S
O836        C838   1.256       .  A
O836       Al837   1.886       .  S
Al837       O845   1.883       .  S
Al837       O847   1.921       .  S
Al837       O846   1.783       .  S
C838        O851   1.260       .  A
C838       C1656   1.470       .  S
O839        C849   1.259       .  A
O839       Al841   1.893       .  S
O840        C853   1.264       .  A
O840       Al850   1.910       .  S
Al841       O854   1.911       .  S
Al841       O851   1.916       .  S
Al841       O846   1.777       .  S
O842        C849   1.265       .  A
O842       Al850   1.924       .  S
O843        C852   1.262       .  A
O843       Al850   1.932       .  S
O844       Al850   1.874       .  S
O845        C852   1.256       .  A
O846       Al850   1.789       .  S
O847        C848   1.264       .  A
C849       C1609   1.478       .  S
C852       C1626   1.485       .  S
C853        O854   1.265       .  A
C853       C1616   1.462       .  S
O855        C870   1.260       .  A
O855       Al863   1.910       .  S
C856        O866   1.257       .  A
C856        O857   1.262       .  A
O857       Al859   1.919       .  S
O858        C860   1.262       .  A
O858       Al859   1.885       .  S
Al859       O867   1.907       .  S
Al859       O869   1.911       .  S
Al859       O868   1.773       .  S
C860        O873   1.271       .  A
C860       C1569   1.471       .  S
O861        C871   1.262       .  A
O861       Al863   1.915       .  S
O862        C875   1.258       .  A
O862       Al872   1.864       .  S
Al863       O876   1.934       .  S
Al863       O873   1.946       .  S
Al863       O868   1.784       .  S
O864        C871   1.260       .  A
O864       Al872   1.898       .  S
O865        C874   1.267       .  A
O865       Al872   1.928       .  S
O866       Al872   1.892       .  S
O867        C874   1.263       .  A
O868       Al872   1.773       .  S
O869        C870   1.260       .  A
C870       C1556   1.475       .  S
C871       C1629   1.476       .  S
C874       C1596   1.480       .  S
C875        O876   1.268       .  A
C875       C1586   1.474       .  S
O877        C892   1.259       .  A
O877       Al885   1.873       .  S
C878        O888   1.260       .  A
C878        O879   1.267       .  A
C878       C1536   1.470       .  S
O879       Al881   1.933       .  S
O880        C882   1.256       .  A
O880       Al881   1.878       .  S
Al881       O889   1.882       .  S
Al881       O891   1.934       .  S
Al881       O890   1.778       .  S
C882        O895   1.262       .  A
C882       C1549   1.472       .  S
O883        C893   1.262       .  A
O883       Al885   1.902       .  S
O884        C897   1.264       .  A
O884       Al894   1.905       .  S
Al885       O898   1.912       .  S
Al885       O895   1.928       .  S
Al885       O890   1.775       .  S
O886        C893   1.266       .  A
O886       Al894   1.925       .  S
O887        C896   1.264       .  A
O887       Al894   1.935       .  S
O888       Al894   1.871       .  S
O889        C896   1.257       .  A
O890       Al894   1.783       .  S
O891        C892   1.266       .  A
C892       C1529   1.473       .  S
C893       C1506   1.482       .  S
C896       C1516   1.482       .  S
C897        O898   1.265       .  A
C897       C1496   1.460       .  S
O899        C914   1.257       .  A
O899       Al907   1.892       .  S
C900        O910   1.259       .  A
C900        O901   1.263       .  A
C900       C1466   1.462       .  S
O901       Al903   1.917       .  S
O902        C904   1.262       .  A
O902       Al903   1.887       .  S
Al903       O911   1.903       .  S
Al903       O913   1.905       .  S
Al903       O912   1.779       .  S
C904        O917   1.268       .  A
C904       C1566   1.471       .  S
O905        C915   1.258       .  A
O905       Al907   1.909       .  S
O906        C919   1.260       .  A
O906       Al916   1.868       .  S
Al907       O920   1.944       .  S
Al907       O917   1.935       .  S
Al907       O912   1.793       .  S
O908        C915   1.256       .  A
O908       Al916   1.886       .  S
O909        C918   1.263       .  A
O909       Al916   1.915       .  S
O910       Al916   1.896       .  S
O911        C918   1.262       .  A
O912       Al916   1.779       .  S
O913        C914   1.258       .  A
C914       C1456   1.470   1_565  S
C915       C1519   1.471       .  S
C918       C1486   1.479       .  S
C919        O920   1.270       .  A
C919       C1476   1.482       .  S
O921        C936   1.259       .  A
O921       Al929   1.898       .  S
C922        O932   1.259       .  A
C922        O923   1.263       .  A
C922       C1429   1.465       .  S
O923       Al925   1.917       .  S
O924        C926   1.262       .  A
O924       Al925   1.886       .  S
Al925       O933   1.900       .  S
Al925       O935   1.907       .  S
Al925       O934   1.777       .  S
C926        O939   1.268       .  A
C926       C1396   1.470       .  S
O927        C937   1.258       .  A
O927       Al929   1.909       .  S
O928        C941   1.260       .  A
O928       Al938   1.869       .  S
Al929       O942   1.941       .  S
Al929       O939   1.934       .  S
Al929       O934   1.793       .  S
O930        C937   1.257       .  A
O930       Al938   1.886       .  S
O931        C940   1.264       .  A
O931       Al938   1.923       .  S
O932       Al938   1.901       .  S
O933        C940   1.262       .  A
O934       Al938   1.781       .  S
O935        C936   1.259       .  A
C936       C1406   1.472       .  S
C937       C1416   1.471       .  S
C940       C1446   1.480       .  S
C941        O942   1.270       .  A
C941       C1436   1.480       .  S
O943        C958   1.260       .  A
O943       Al951   1.882       .  S
C944        O954   1.260       .  A
C944        O945   1.267       .  A
C944       C1376   1.471       .  S
O945       Al947   1.931       .  S
O946        C948   1.257       .  A
O946       Al947   1.883       .  S
Al947       O955   1.877       .  S
Al947       O957   1.923       .  S
Al947       O956   1.783       .  S
C948        O961   1.262       .  A
C948       C1386   1.475       .  S
O949        C959   1.260       .  A
O949       Al951   1.897       .  S
O950        C963   1.263       .  A
O950       Al960   1.905       .  S
Al951       O964   1.912       .  S
Al951       O961   1.918       .  S
Al951       O956   1.776       .  S
O952        C959   1.264       .  A
O952       Al960   1.921       .  S
O953        C962   1.262       .  A
O953       Al960   1.931       .  S
O954       Al960   1.871       .  S
O955        C962   1.256       .  A
O956       Al960   1.788       .  S
O957        C958   1.263       .  A
C958       C1366   1.477       .  S
C959       C1356   1.480   1_655  S
C962       C1419   1.480       .  S
C963        O964   1.265       .  A
C963       C1619   1.461       .  S
O965        C980   1.260       .  A
O965       Al973   1.880       .  S
C966        O976   1.261       .  A
C966        O967   1.268       .  A
C966       C1336   1.473       .  S
O967       Al969   1.930       .  S
O968        C970   1.256       .  A
O968       Al969   1.888       .  S
Al969       O977   1.881       .  S
Al969       O979   1.923       .  S
Al969       O978   1.785       .  S
C970        O983   1.260       .  A
C970       C1346   1.473       .  S
O971        C981   1.259       .  A
O971       Al973   1.895       .  S
O972        C985   1.264       .  A
O972       Al982   1.909       .  S
Al973       O986   1.911       .  S
Al973       O983   1.914       .  S
Al973       O978   1.778       .  S
O974        C981   1.264       .  A
O974       Al982   1.921       .  S
O975        C984   1.261       .  A
O975       Al982   1.933       .  S
O976       Al982   1.875       .  S
O977        C984   1.255       .  A
O978       Al982   1.792       .  S
O979        C980   1.264       .  A
C981       C1306   1.479   1_655  S
C984       C1316   1.485       .  S
C985        O986   1.265       .  A
C985       C1499   1.462       .  S
O987       C1002   1.259       .  A
O987       Al995   1.906       .  S
C988        O998   1.258       .  A
C988        O989   1.262       .  A
O989       Al991   1.916       .  S
O990        C992   1.263       .  A
O990       Al991   1.889       .  S
Al991       O999   1.912       .  S
Al991      O1001   1.910       .  S
Al991      O1000   1.776       .  S
C992       O1005   1.271       .  A
C992       C1399   1.471       .  S
O993       C1003   1.261       .  A
O993       Al995   1.916       .  S
O994       C1007   1.258       .  A
O994      Al1004   1.869       .  S
Al995      O1008   1.938       .  S
Al995      O1005   1.943       .  S
Al995      O1000   1.786       .  S
O996       C1003   1.259       .  A
O996      Al1004   1.892       .  S
O997       C1006   1.266       .  A
O997      Al1004   1.920       .  S
O998      Al1004   1.900       .  S
O999       C1006   1.265       .  A
O1000     Al1004   1.772       .  S
O1001      C1002   1.260       .  A
C1002      C1266   1.475   1_565  S
C1003      C1319   1.476       .  S
C1006      C1296   1.483       .  S
C1007      O1008   1.268       .  A
C1007      C1286   1.479       .  S
O1009      C1024   1.259       .  A
O1009     Al1017   1.878       .  S
C1010      O1020   1.262       .  A
C1010      O1011   1.268       .  A
C1010      C1579   1.474       .  S
O1011     Al1013   1.924       .  S
O1012      C1014   1.256       .  A
O1012     Al1013   1.887       .  S
Al1013     O1021   1.886       .  S
Al1013     O1023   1.914       .  S
Al1013     O1022   1.786       .  S
C1014      O1027   1.258       .  A
C1014      C1459   1.471       .  S
O1015      C1025   1.259       .  A
O1015     Al1017   1.894       .  S
O1016      C1029   1.264       .  A
O1016     Al1026   1.912       .  S
Al1017     O1030   1.908       .  S
Al1017     O1027   1.907       .  S
Al1017     O1022   1.779       .  S
O1018      C1025   1.264       .  A
O1018     Al1026   1.925       .  S
O1019      C1028   1.260       .  A
O1019     Al1026   1.924       .  S
O1020     Al1026   1.875       .  S
O1021      C1028   1.256       .  A
O1022     Al1026   1.792       .  S
O1023      C1024   1.263       .  A
C1024      C1589   1.471       .  S
C1025      C1449   1.481       .  S
C1028      C1246   1.483       .  S
C1029      O1030   1.264       .  A
C1029      C1256   1.463       .  S
O1031      C1046   1.258       .  A
O1031     Al1039   1.908       .  S
C1032      O1042   1.258       .  A
C1032      O1033   1.261       .  A
C1032      C1649   1.464       .  S
O1033     Al1035   1.914       .  S
O1034      C1036   1.263       .  A
O1034     Al1035   1.882       .  S
Al1035     O1043   1.906       .  S
Al1035     O1045   1.907       .  S
Al1035     O1044   1.775       .  S
C1036      O1049   1.271       .  A
C1036      C1236   1.468       .  S
O1037      C1047   1.260       .  A
O1037     Al1039   1.911       .  S
O1038      C1051   1.258       .  A
O1038     Al1048   1.868       .  S
Al1039     O1052   1.931       .  S
Al1039     O1049   1.945       .  S
Al1039     O1044   1.786       .  S
O1040      C1047   1.259       .  A
O1040     Al1048   1.892       .  S
O1041      C1050   1.267       .  A
O1041     Al1048   1.923       .  S
O1042     Al1048   1.901       .  S
O1043      C1050   1.265       .  A
O1044     Al1048   1.772       .  S
O1045      C1046   1.258       .  A
C1046      C1546   1.469       .  S
C1047      C1249   1.473       .  S
C1050      C1359   1.479       .  S
C1051      O1052   1.267       .  A
C1051      C1639   1.478       .  S
O1053      C1068   1.258       .  A
O1053     Al1061   1.900       .  S
C1054      O1064   1.259       .  A
C1054      O1055   1.263       .  A
C1054      C1379   1.462       .  S
O1055     Al1057   1.918       .  S
O1056      C1058   1.262       .  A
O1056     Al1057   1.883       .  S
Al1057     O1065   1.899       .  S
Al1057     O1067   1.904       .  S
Al1057     O1066   1.776       .  S
C1058      O1071   1.268       .  A
C1058      C1226   1.467       .  S
O1059      C1069   1.258       .  A
O1059     Al1061   1.912       .  S
O1060      C1073   1.259       .  A
O1060     Al1070   1.864       .  S
Al1061     O1074   1.943       .  S
Al1061     O1071   1.934       .  S
Al1061     O1066   1.791       .  S
O1062      C1069   1.256       .  A
O1062     Al1070   1.882       .  S
O1063      C1072   1.263       .  A
O1063     Al1070   1.917       .  S
O1064     Al1070   1.897       .  S
O1065      C1072   1.261       .  A
O1066     Al1070   1.779       .  S
O1067      C1068   1.258       .  A
C1068      C1349   1.473       .  S
C1069      C1216   1.472       .  S
C1072      C1606   1.477       .  S
C1073      O1074   1.271       .  A
C1073      C1369   1.479       .  S
O1075      C1090   1.260       .  A
O1075     Al1083   1.879       .  S
C1076      O1086   1.259       .  A
C1076      O1077   1.265       .  A
C1076      C1426   1.473       .  S
O1077     Al1079   1.928       .  S
O1078      C1080   1.256       .  A
O1078     Al1079   1.885       .  S
Al1079     O1087   1.878       .  S
Al1079     O1089   1.936       .  S
Al1079     O1088   1.779       .  S
C1080      O1093   1.262       .  A
C1080      C1269   1.471       .  S
O1081      C1091   1.264       .  A
O1081     Al1083   1.903       .  S
O1082      C1095   1.262       .  A
O1082     Al1092   1.910       .  S
Al1083     O1096   1.911       .  S
Al1083     O1093   1.931       .  S
Al1083     O1088   1.777       .  S
O1084      C1091   1.267       .  A
O1084     Al1092   1.924       .  S
O1085      C1094   1.265       .  A
O1085     Al1092   1.934       .  S
O1086     Al1092   1.878       .  S
O1087      C1094   1.258       .  A
O1088     Al1092   1.780       .  S
O1089      C1090   1.266       .  A
C1090      C1439   1.477       .  S
C1091      C1599   1.483       .  S
C1094      C1219   1.481       .  S
C1095      O1096   1.263       .  A
C1095      C1259   1.464       .  S
O1097      C1112   1.260       .  A
O1097     Al1105   1.880       .  S
C1098      O1108   1.260       .  A
C1098      O1099   1.269       .  A
C1098      C1279   1.472       .  S
O1099     Al1101   1.934       .  S
O1100      C1102   1.257       .  A
O1100     Al1101   1.891       .  S
Al1101     O1109   1.885       .  S
Al1101     O1111   1.927       .  S
Al1101     O1110   1.783       .  S
C1102      O1115   1.259       .  A
C1102      C1409   1.475       .  S
O1103      C1113   1.259       .  A
O1103     Al1105   1.892       .  S
O1104      C1117   1.262       .  A
O1104     Al1114   1.903       .  S
Al1105     O1118   1.912       .  S
Al1105     O1115   1.912       .  S
Al1105     O1110   1.777       .  S
O1106      C1113   1.265       .  A
O1106     Al1114   1.927       .  S
O1107      C1116   1.261       .  A
O1107     Al1114   1.926       .  S
O1108     Al1114   1.867       .  S
O1109      C1116   1.256       .  A
O1110     Al1114   1.790       .  S
O1111      C1112   1.265       .  A
C1112      C1289   1.477       .  S
C1113      C1489   1.479       .  S
C1116      C1196   1.483       .  S
C1117      O1118   1.265       .  A
C1117      C1209   1.459       .  S
O1119      C1134   1.256       .  A
O1119     Al1127   1.894       .  S
C1120      O1130   1.258       .  A
C1120      O1121   1.263       .  A
C1120      C1339   1.465       .  S
O1121     Al1123   1.923       .  S
O1122      C1124   1.262       .  A
O1122     Al1123   1.884       .  S
Al1123     O1131   1.903       .  S
Al1123     O1133   1.905       .  S
Al1123     O1132   1.779       .  S
C1124      O1137   1.268       .  A
C1124      C1229   1.468       .  S
O1125      C1135   1.258       .  A
O1125     Al1127   1.909       .  S
O1126      C1139   1.259       .  A
O1126     Al1136   1.863       .  S
Al1127     O1140   1.940       .  S
Al1127     O1137   1.933       .  S
Al1127     O1132   1.794       .  S
O1128      C1135   1.256       .  A
O1128     Al1136   1.888       .  S
O1129      C1138   1.264       .  A
O1129     Al1136   1.923       .  S
O1130     Al1136   1.896       .  S
O1131      C1138   1.262       .  A
O1132     Al1136   1.780       .  S
O1133      C1134   1.257       .  A
C1134      C1389   1.467       .  S
C1135      C1199   1.473       .  S
C1138      C1509   1.481       .  S
C1139      O1140   1.270       .  A
C1139      C1329   1.479       .  S
O1141      C1156   1.260       .  A
O1141     Al1149   1.877       .  S
C1142      O1152   1.259       .  A
C1142      O1143   1.267       .  A
C1142      C1469   1.470       .  S
O1143     Al1145   1.930       .  S
O1144      C1146   1.256       .  A
O1144     Al1145   1.885       .  S
Al1145     O1153   1.885       .  S
Al1145     O1155   1.940       .  S
Al1145     O1154   1.776       .  S
C1146      O1159   1.261       .  A
C1146      C1559   1.474       .  S
O1147      C1157   1.263       .  A
O1147     Al1149   1.905       .  S
O1148      C1161   1.262       .  A
O1148     Al1158   1.902       .  S
Al1149     O1162   1.910       .  S
Al1149     O1159   1.929       .  S
Al1149     O1154   1.777       .  S
O1150      C1157   1.267       .  A
O1150     Al1158   1.926       .  S
O1151      C1160   1.264       .  A
O1151     Al1158   1.936       .  S
O1152     Al1158   1.872       .  S
O1153      C1160   1.258       .  A
O1154     Al1158   1.784       .  S
O1155      C1156   1.267       .  A
C1156      C1479   1.479       .  S
C1157      C1299   1.483       .  S
C1160      C1186   1.485       .  S
C1161      O1162   1.265       .  A
C1161      C1206   1.458       .  S
O1163      C1178   1.259       .  A
O1163     Al1171   1.902       .  S
C1164      O1174   1.259       .  A
C1164      O1165   1.263       .  A
C1164      C1539   1.464       .  S
O1165     Al1167   1.914       .  S
O1166      C1168   1.261       .  A
O1166     Al1167   1.882       .  S
Al1167     O1175   1.900       .  S
Al1167     O1177   1.902       .  S
Al1167     O1176   1.777       .  S
C1168      O1181   1.268       .  A
C1168      C1239   1.467       .  S
O1169      C1179   1.260       .  A
O1169     Al1171   1.917       .  S
O1170      C1183   1.260       .  A
O1170     Al1180   1.867       .  S
Al1171     O1184   1.937       .  S
Al1171     O1181   1.932       .  S
Al1171     O1176   1.791       .  S
O1172      C1179   1.257       .  A
O1172     Al1180   1.888       .  S
O1173      C1182   1.264       .  A
O1173     Al1180   1.921       .  S
O1174     Al1180   1.899       .  S
O1175      C1182   1.261       .  A
O1176     Al1180   1.778       .  S
O1177      C1178   1.258       .  A
C1178      C1659   1.476       .  S
C1179      C1189   1.477       .  S
C1182      C1309   1.478       .  S
C1183      O1184   1.269       .  A
C1183      C1526   1.479       .  S
C1185      C1186   1.405       .  A
C1185      C1190   1.393       .  A
C1185      H1191   1.083       .  S
C1186      C1187   1.410       .  A
C1187      C1188   1.407       .  A
C1187      H1192   1.083       .  S
C1188      C1189   1.404       .  A
C1188      H1193   1.083       .  S
C1189      C1190   1.403       .  A
C1190      H1194   1.084       .  S
C1195      C1196   1.409       .  A
C1195      C1200   1.404       .  A
C1195      H1201   1.083       .  S
C1196      C1197   1.405       .  A
C1197      C1198   1.393       .  A
C1197      H1202   1.083       .  S
C1198      C1199   1.402       .  A
C1198      H1203   1.084       .  S
C1199      C1200   1.403       .  A
C1200      H1204   1.083       .  S
C1205      C1206   1.400       .  A
C1205      C1210   1.395       .  A
C1205      H1211   1.081       .  S
C1206      C1207   1.402       .  A
C1207      C1208   1.398       .  A
C1207      H1212   1.085       .  S
C1208      C1209   1.401       .  A
C1208      H1213   1.081       .  S
C1209      C1210   1.402       .  A
C1210      H1214   1.085       .  S
C1215      C1216   1.403       .  A
C1215      C1220   1.405       .  A
C1215      H1221   1.083       .  S
C1216      C1217   1.402       .  A
C1217      C1218   1.391       .  A
C1217      H1222   1.084       .  S
C1218      C1219   1.405       .  A
C1218      H1223   1.083       .  S
C1219      C1220   1.409       .  A
C1220      H1224   1.083       .  S
C1225      C1226   1.403       .  A
C1225      C1230   1.398       .  A
C1225      H1231   1.085       .  S
C1226      C1227   1.402       .  A
C1227      C1228   1.397       .  A
C1227      H1232   1.084       .  S
C1228      C1229   1.403       .  A
C1228      H1233   1.084       .  S
C1229      C1230   1.403       .  A
C1230      H1234   1.083       .  S
C1235      C1236   1.404       .  A
C1235      C1240   1.397       .  A
C1235      H1241   1.085       .  S
C1236      C1237   1.404       .  A
C1237      C1238   1.398       .  A
C1237      H1242   1.081       .  S
C1238      C1239   1.403       .  A
C1238      H1243   1.085       .  S
C1239      C1240   1.402       .  A
C1240      H1244   1.082       .  S
C1245      C1246   1.405       .  A
C1245      C1250   1.393       .  A
C1245      H1251   1.083       .  S
C1246      C1247   1.409       .  A
C1247      C1248   1.405       .  A
C1247      H1252   1.083       .  S
C1248      C1249   1.403       .  A
C1248      H1253   1.083       .  S
C1249      C1250   1.402       .  A
C1250      H1254   1.084       .  S
C1255      C1256   1.403       .  A
C1255      C1260   1.399       .  A
C1255      H1261   1.084       .  S
C1256      C1257   1.401       .  A
C1257      C1258   1.398       .  A
C1257      H1262   1.083       .  S
C1258      C1259   1.403       .  A
C1258      H1263   1.084       .  S
C1259      C1260   1.401       .  A
C1260      H1264   1.082       .  S
C1265      C1266   1.405       .  A
C1265      C1270   1.395       .  A
C1265      H1271   1.082       .  S
C1266      C1267   1.405       .  A
C1267      C1268   1.402       .  A
C1267      H1272   1.085       .  S
C1268      C1269   1.404       .  A
C1268      H1273   1.081       .  S
C1269      C1270   1.402       .  A
C1270      H1274   1.086       .  S
C1275      C1276   1.402       .  A
C1275      C1280   1.401       .  A
C1276      C1277   1.399       .  A
C1277      C1278   1.390       .  A
C1277      H1282   1.083       .  S
C1278      C1279   1.405       .  A
C1278      H1283   1.084       .  S
C1279      C1280   1.406       .  A
C1280      H1284   1.082       .  S
C1285      C1286   1.406       .  A
C1285      C1290   1.391       .  A
C1285      H1291   1.083       .  S
C1286      C1287   1.406       .  A
C1287      C1288   1.404       .  A
C1287      H1292   1.083       .  S
C1288      C1289   1.407       .  A
C1288      H1293   1.083       .  S
C1289      C1290   1.402       .  A
C1290      H1294   1.084       .  S
C1295      C1296   1.406       .  A
C1295      C1300   1.404       .  A
C1295      H1301   1.083       .  S
C1296      C1297   1.406       .  A
C1297      C1298   1.393       .  A
C1297      H1302   1.082       .  S
C1298      C1299   1.404       .  A
C1298      H1303   1.083       .  S
C1299      C1300   1.408       .  A
C1300      H1304   1.082       .  S
C1305      C1306   1.404       .  A
C1305      C1310   1.394       .  A
C1305      H1311   1.083       .  S
C1306      C1307   1.407       .  A
C1307      C1308   1.400       .  A
C1307      H1312   1.082       .  S
C1308      C1309   1.405       .  A
C1308      H1313   1.083       .  S
C1309      C1310   1.405       .  A
C1310      H1314   1.082       .  S
C1315      C1316   1.410       .  A
C1315      C1320   1.408       .  A
C1315      H1321   1.083       .  S
C1316      C1317   1.405       .  A
C1317      C1318   1.391       .  A
C1317      H1322   1.083       .  S
C1318      C1319   1.402       .  A
C1318      H1323   1.084       .  S
C1319      C1320   1.405       .  A
C1320      H1324   1.083       .  S
C1325      C1326   1.401       .  A
C1325      C1330   1.389       .  A
C1325      H1331   1.083       .  S
C1326      C1327   1.407       .  A
C1327      C1328   1.405       .  A
C1328      C1329   1.406       .  A
C1328      H1333   1.083       .  S
C1329      C1330   1.406       .  A
C1330      H1334   1.083       .  S
C1335      C1336   1.405       .  A
C1335      C1340   1.400       .  A
C1335      H1341   1.085       .  S
C1336      C1337   1.405       .  A
C1337      C1338   1.392       .  A
C1337      H1342   1.082       .  S
C1338      C1339   1.400       .  A
C1338      H1343   1.085       .  S
C1339      C1340   1.403       .  A
C1340      H1344   1.082       .  S
C1345      C1346   1.404       .  A
C1345      C1350   1.399       .  A
C1345      H1351   1.084       .  S
C1346      C1347   1.403       .  A
C1347      C1348   1.400       .  A
C1347      H1352   1.084       .  S
C1348      C1349   1.404       .  A
C1348      H1353   1.084       .  S
C1349      C1350   1.403       .  A
C1350      H1354   1.084       .  S
C1355      C1356   1.404       .  A
C1355      C1360   1.393       .  A
C1355      H1361   1.083       .  S
C1356      C1357   1.408       .  A
C1357      C1358   1.402       .  A
C1357      H1362   1.082       .  S
C1358      C1359   1.405       .  A
C1358      H1363   1.083       .  S
C1359      C1360   1.405       .  A
C1360      H1364   1.082       .  S
C1365      C1370   1.390       .  A
C1365      H1371   1.084       .  S
C1366      C1367   1.407       .  A
C1367      H1372   1.083       .  S
C1368      C1369   1.405       .  A
C1368      H1373   1.083       .  S
C1369      C1370   1.406       .  A
C1370      H1374   1.084       .  S
C1375      C1376   1.406       .  A
C1375      C1380   1.401       .  A
C1375      H1381   1.082       .  S
C1376      C1377   1.404       .  A
C1377      C1378   1.390       .  A
C1377      H1382   1.084       .  S
C1378      C1379   1.399       .  A
C1378      H1383   1.083       .  S
C1379      C1380   1.402       .  A
C1380      H1384   1.084       .  S
C1385      C1386   1.405       .  A
C1385      C1390   1.400       .  A
C1385      H1391   1.084       .  S
C1386      C1387   1.405       .  A
C1387      C1388   1.397       .  A
C1387      H1392   1.084       .  S
C1388      C1389   1.401       .  A
C1388      H1393   1.084       .  S
C1389      C1390   1.402       .  A
C1390      H1394   1.084       .  S
C1395      C1396   1.403       .  A
C1395      C1400   1.399   1_545  A
C1395      H1401   1.083       .  S
C1396      C1397   1.403       .  A
C1398      C1399   1.404   1_545  A
C1398      H1403   1.083       .  S
C1400      H1404   1.084       .  S
C1405      C1406   1.404       .  A
C1405      C1410   1.401   1_545  A
C1405      H1411   1.083       .  S
C1406      C1407   1.403       .  A
C1407      C1408   1.399   1_545  A
C1407      H1412   1.084       .  S
C1408      C1409   1.404       .  A
C1408      H1413   1.083       .  S
C1409      C1410   1.405       .  A
C1410      H1414   1.084       .  S
C1415      C1416   1.404       .  A
C1415      C1420   1.405       .  A
C1415      H1421   1.083       .  S
C1416      C1417   1.401       .  A
C1417      C1418   1.390       .  A
C1417      H1422   1.084       .  S
C1418      C1419   1.405       .  A
C1418      H1423   1.083       .  S
C1419      C1420   1.409       .  A
C1420      H1424   1.083       .  S
C1425      C1426   1.403       .  A
C1425      C1430   1.390       .  A
C1425      H1431   1.085       .  S
C1426      C1427   1.407       .  A
C1427      H1432   1.082       .  S
C1428      C1429   1.403       .  A
C1428      H1433   1.085       .  S
C1430      H1434   1.083   1_556  S
C1435      C1436   1.406       .  A
C1435      C1440   1.390       .  A
C1435      H1441   1.083       .  S
C1436      C1437   1.407       .  A
C1437      C1438   1.405       .  A
C1437      H1442   1.084       .  S
C1438      C1439   1.406       .  A
C1438      H1443   1.082       .  S
C1439      C1440   1.402       .  A
C1440      H1444   1.084       .  S
C1445      C1446   1.405       .  A
C1445      C1450   1.400       .  A
C1445      H1451   1.083       .  S
C1446      C1447   1.406       .  A
C1447      C1448   1.396       .  A
C1447      H1452   1.082       .  S
C1448      C1449   1.405       .  A
C1448      H1453   1.083       .  S
C1449      C1450   1.407       .  A
C1450      H1454   1.082       .  S
C1455      C1456   1.403       .  A
C1455      C1460   1.399       .  A
C1455      H1461   1.084       .  S
C1456      C1457   1.403       .  A
C1457      C1458   1.398       .  A
C1457      H1462   1.083       .  S
C1458      C1459   1.403       .  A
C1458      H1463   1.084       .  S
C1459      C1460   1.403       .  A
C1460      H1464   1.083       .  S
C1465      C1470   1.399       .  A
C1465      H1471   1.083       .  S
C1466      C1467   1.400       .  A
C1467      H1472   1.084       .  S
C1468      C1469   1.404       .  A
C1468      H1473   1.083       .  S
C1469      C1470   1.405       .  A
C1470      H1474   1.083       .  S
C1475      C1476   1.407       .  A
C1475      C1480   1.406       .  A
C1475      H1481   1.083       .  S
C1476      C1477   1.406       .  A
C1477      C1478   1.390       .  A
C1477      H1482   1.083       .  S
C1478      C1479   1.402       .  A
C1478      H1483   1.083       .  S
C1479      C1480   1.407       .  A
C1480      H1484   1.083       .  S
C1485      C1486   1.406       .  A
C1485      C1490   1.394       .  A
C1485      H1491   1.082       .  S
C1486      C1487   1.404       .  A
C1487      C1488   1.400       .  A
C1487      H1492   1.083       .  S
C1488      C1489   1.407       .  A
C1488      H1493   1.082       .  S
C1489      C1490   1.403       .  A
C1490      H1494   1.083       .  S
C1495      C1496   1.403       .  A
C1495      C1500   1.399   1_455  A
C1495      H1501   1.084   1_455  S
C1496      C1497   1.400       .  A
C1498      C1499   1.403   1_455  A
C1498      H1503   1.084       .  S
C1500      H1504   1.082       .  S
C1505      C1506   1.405   1_655  A
C1505      C1510   1.395       .  A
C1505      H1511   1.083       .  S
C1506      C1507   1.407       .  A
C1507      C1508   1.402   1_455  A
C1507      H1512   1.082       .  S
C1508      C1509   1.406       .  A
C1508      H1513   1.083       .  S
C1509      C1510   1.405       .  A
C1510      H1514   1.082       .  S
C1515      C1516   1.405       .  A
C1515      C1520   1.392       .  A
C1515      H1521   1.083       .  S
C1516      C1517   1.409       .  A
C1517      C1518   1.404       .  A
C1517      H1522   1.083       .  S
C1518      C1519   1.403       .  A
C1518      H1523   1.083       .  S
C1519      C1520   1.402       .  A
C1520      H1524   1.084       .  S
C1525      C1526   1.407       .  A
C1525      H1531   1.083       .  S
C1526      C1527   1.406       .  A
C1527      C1528   1.389       .  A
C1527      H1532   1.083       .  S
C1528      H1533   1.084       .  S
C1529      C1530   1.406       .  A
C1530      H1534   1.083       .  S
C1535      C1536   1.405       .  A
C1535      C1540   1.402       .  A
C1535      H1541   1.082       .  S
C1536      C1537   1.403       .  A
C1537      C1538   1.389       .  A
C1537      H1542   1.085       .  S
C1538      C1539   1.400       .  A
C1538      H1543   1.082       .  S
C1539      C1540   1.404       .  A
C1540      H1544   1.085       .  S
C1545      C1546   1.402       .  A
C1545      C1550   1.392       .  A
C1545      H1551   1.084       .  S
C1546      C1547   1.403       .  A
C1547      C1548   1.402       .  A
C1547      H1552   1.084       .  S
C1548      C1549   1.406       .  A
C1548      H1553   1.083       .  S
C1549      C1550   1.402       .  A
C1550      H1554   1.084       .  S
C1555      C1556   1.405       .  A
C1555      C1560   1.404   1_545  A
C1555      H1561   1.083       .  S
C1556      C1557   1.404   1_545  A
C1557      C1558   1.394       .  A
C1557      H1562   1.084       .  S
C1558      C1559   1.402       .  A
C1558      H1563   1.083       .  S
C1559      C1560   1.406       .  A
C1560      H1564   1.084       .  S
C1565      C1566   1.403   1_545  A
C1565      C1570   1.398       .  A
C1565      H1571   1.082       .  S
C1566      C1567   1.404       .  A
C1567      H1572   1.085       .  S
C1568      C1569   1.404       .  A
C1568      H1573   1.082       .  S
C1570      H1574   1.085       .  S
C1575      C1576   1.397       .  A
C1575      C1580   1.391       .  A
C1575      H1581   1.084       .  S
C1576      C1577   1.400       .  A
C1577      C1578   1.399       .  A
C1577      H1582   1.083       .  S
C1578      C1579   1.407       .  A
C1578      H1583   1.083       .  S
C1579      C1580   1.406       .  A
C1580      H1584   1.083       .  S
C1585      C1586   1.406       .  A
C1585      C1590   1.389       .  A
C1585      H1591   1.084       .  S
C1586      C1587   1.404       .  A
C1587      C1588   1.401       .  A
C1587      H1592   1.084       .  S
C1588      C1589   1.406       .  A
C1588      H1593   1.083       .  S
C1589      C1590   1.401       .  A
C1590      H1594   1.083       .  S
C1595      C1596   1.404       .  A
C1595      C1600   1.395       .  A
C1595      H1601   1.082       .  S
C1596      C1597   1.406       .  A
C1597      C1598   1.403       .  A
C1597      H1602   1.083       .  S
C1598      C1599   1.407       .  A
C1598      H1603   1.082       .  S
C1599      C1600   1.405       .  A
C1600      H1604   1.083       .  S
C1605      C1606   1.406       .  A
C1605      C1610   1.394       .  A
C1605      H1611   1.082       .  S
C1606      C1607   1.405       .  A
C1607      C1608   1.399       .  A
C1607      H1612   1.083       .  S
C1608      C1609   1.406   1_655  A
C1608      H1613   1.082   1_655  S
C1609      C1610   1.404   1_455  A
C1610      H1614   1.083       .  S
C1615      C1620   1.398       .  A
C1615      H1621   1.084       .  S
C1616      C1617   1.403   1_455  A
C1617      H1622   1.083       .  S
C1618      C1619   1.400       .  A
C1619      C1620   1.403   1_655  A
C1620      H1624   1.083       .  S
C1625      C1626   1.405       .  A
C1625      C1630   1.393       .  A
C1625      H1631   1.083       .  S
C1626      C1627   1.409       .  A
C1627      C1628   1.406       .  A
C1627      H1632   1.083       .  S
C1628      C1629   1.404       .  A
C1628      H1633   1.083       .  S
C1629      C1630   1.402       .  A
C1630      H1634   1.084       .  S
C1635      C1636   1.401       .  A
C1635      C1640   1.391       .  A
C1635      H1641   1.085       .  S
C1636      C1637   1.405       .  A
C1637      C1638   1.401       .  A
C1638      C1639   1.406       .  A
C1638      H1643   1.084       .  S
C1639      C1640   1.407       .  A
C1640      H1644   1.083       .  S
C1645      C1646   1.404       .  A
C1645      C1650   1.390       .  A
C1645      H1651   1.084       .  S
C1646      C1647   1.405       .  A
C1647      C1648   1.401       .  A
C1647      H1652   1.083       .  S
C1648      C1649   1.403       .  A
C1648      H1653   1.083       .  S
C1649      C1650   1.400       .  A
C1650      H1654   1.084       .  S
C1655      C1656   1.401       .  A
C1655      C1660   1.400       .  A
C1655      H1661   1.084       .  S
C1656      C1657   1.403       .  A
C1657      C1658   1.399       .  A
C1657      H1662   1.083       .  S
C1658      C1659   1.404       .  A
C1658      H1663   1.084       .  S
C1659      C1660   1.407       .  A
C1660      H1664   1.083       .  S
