geometry optimzed in LAMMPS
_audit_creation_date              2020-12-01 
_audit_creation_method            'lammps2cif' 
_symmetry_space_group_name_H-M    'P1' 
_symmetry_Int_Tables_number       1 
_symmetry_cell_setting            triclinic 
loop_ 
_symmetry_equiv_pos_as_xyz 
  x,y,z 
_cell_length_a                    64.58538203 
_cell_length_b                    64.6072708713106 
_cell_length_c                    36.016693031962866 
_cell_angle_alpha                 89.80996094949785 
_cell_angle_beta                  90.15498849454858 
_cell_angle_gamma                 91.58366070446779 
loop_ 
_atom_site_label 
_atom_site_type_symbol 
_atom_site_fract_x 
_atom_site_fract_y 
_atom_site_fract_z 
_atom_site_charge 
O1          O  0.83046263  0.35590949  0.42198771    -0.80500
O2          O  0.92855948  0.37171902  0.41636667    -0.65200
O3          O  0.87303791  0.34926798  0.42135170    -1.11800
C4          C  0.88119060  0.36743625  0.54949712     1.06400
O5          O  0.93679770  0.35252891  0.46482472    -0.78400
O6          O  0.91009473  0.33287632  0.51163938    -0.66000
Ni7        Ni  0.85283657  0.35922793  0.38761770     1.34900
C8          C  0.89452938  0.32149877  0.50279795     0.85100
O9          O  0.90343243  0.35390292  0.36636843    -0.79000
O10         O  0.87208537  0.36289950  0.34744216    -0.89200
C11         C  0.94199124  0.36243295  0.43560014     0.84700
O12         O  0.85711803  0.38695494  0.40335687    -0.67500
O13         O  0.90055145  0.36935545  0.54276261    -0.86700
C14         C  0.87395359  0.39750859  0.40274270     0.85500
C15         C  0.89062793  0.35796088  0.34081261     1.07100
H16         H  0.89505775  0.38275856  0.47023038     0.38900
O17         O  0.89660217  0.36798128  0.46812631    -1.09400
O18         O  0.87893850  0.32818895  0.48531255    -0.66000
Ni19       Ni  0.86970588  0.35555757  0.47320777     1.26300
O20         O  0.89176042  0.38921874  0.40339592    -0.66300
O21         O  0.86764552  0.36206536  0.52520575    -0.78600
C22         C  0.82736932  0.34793759  0.45383551     0.84900
O23         O  0.84204016  0.34409724  0.47615294    -0.65700
Ni24       Ni  0.91775067  0.36118692  0.50250905     1.27400
Ni25       Ni  0.90043895  0.36130718  0.41726484     1.26100
H26         H  0.87379821  0.33447998  0.41793535     0.39400
O27         O  0.83367413  0.36708339  0.93675646    -0.80500
O28         O  0.92854174  0.37360445  0.91146932    -0.65200
O29         O  0.87320623  0.35248290  0.92226712    -1.11800
C30         C  0.88879163  0.36048644  0.05059145     1.06400
O31         O  0.94031095  0.35137935  0.95280264    -0.78400
O32         O  0.91396969  0.32654972  0.99569832    -0.66000
Ni33       Ni  0.85107447  0.36398039  0.89422426     1.34900
C34         C  0.89619124  0.31778154  0.99201956     0.85100
O35         O  0.90010540  0.36041168  0.86233719    -0.79000
O36         O  0.86616683  0.36162492  0.84883126    -0.89200
C37         C  0.94349830  0.36466778  0.92700276     0.84700
O38         O  0.85920695  0.39246778  0.89847184    -0.67500
O39         O  0.90772362  0.35908713  0.04097681    -0.86700
C40         C  0.87653760  0.40173988  0.90380878     0.85500
C41         C  0.88509354  0.36056322  0.83928846     1.07100
H42         H  0.90029408  0.38101997  0.97403666     0.38900
O43         O  0.90034302  0.36646091  0.96799684    -1.09400
O44         O  0.88016177  0.32735976  0.98208199    -0.66000
Ni45       Ni  0.87281834  0.35577420  0.97513007     1.26300
O46         O  0.89315472  0.39223449  0.91032086    -0.66300
O47         O  0.87357930  0.35976044  0.02787478    -0.78600
C48         C  0.83001009  0.35326587  0.96111726     0.84900
O49         O  0.84473644  0.34550105  0.97934217    -0.65700
Ni50       Ni  0.92270320  0.35521988  0.99572998     1.27400
Ni51       Ni  0.90063944  0.36356302  0.91531386     1.26100
H52         H  0.87333262  0.33789629  0.91645898     0.39400
O53         O  0.82304810  0.15079312  0.22068485    -0.80500
O54         O  0.91816428  0.12707845  0.23482490    -0.65200
O55         O  0.86620748  0.15389123  0.22292732    -1.11800
C56         C  0.87624720  0.13553703  0.09616184     1.06400
O57         O  0.93099003  0.14539349  0.18828111    -0.78400
O58         O  0.90832600  0.16917069  0.14454739    -0.66000
Ni59       Ni  0.84429353  0.14561682  0.25611794     1.34900
C60         C  0.89256618  0.18034180  0.14615133     0.85100
O61         O  0.89450140  0.14763704  0.28123382    -0.79000
O62         O  0.86203024  0.14041735  0.29786139    -0.89200
C63         C  0.93361779  0.13425654  0.21688519     0.84700
O64         O  0.84503593  0.11744081  0.24118739    -0.67500
O65         O  0.89541716  0.13553209  0.10473980    -0.86700
C66         C  0.86062270  0.10593136  0.24310388     0.85500
C67         C  0.88088205  0.14429980  0.30587972     1.07100
H68         H  0.88653960  0.11872239  0.17667966     0.38900
O69         O  0.88904745  0.13346780  0.17910952    -1.09400
O70         O  0.87467810  0.17348715  0.15600433    -0.66000
Ni71       Ni  0.86325088  0.14654797  0.17096839     1.26300
O72         O  0.87928206  0.11317418  0.24326991    -0.66300
O73         O  0.86178999  0.13867137  0.11947538    -0.78600
C74         C  0.82117653  0.15702235  0.18744609     0.84900
O75         O  0.83636904  0.15839408  0.16503901    -0.65700
Ni76       Ni  0.91204703  0.14018335  0.14800870     1.27400
Ni77       Ni  0.89192515  0.14009905  0.23025169     1.26100
H78         H  0.86865855  0.16864820  0.22534330     0.39400
O79         O  0.82621761  0.15241353  0.72084219    -0.80500
O80         O  0.92118181  0.12840369  0.73537099    -0.65200
O81         O  0.86910909  0.15460762  0.72403123    -1.11800
C82         C  0.88036482  0.13779701  0.59672573     1.06400
O83         O  0.93427131  0.14806856  0.69051347    -0.78400
O84         O  0.91108714  0.17170615  0.64417503    -0.66000
Ni85       Ni  0.84704392  0.14557727  0.75597297     1.34900
C86         C  0.89500184  0.18236493  0.64799029     0.85100
O87         O  0.89676881  0.14766485  0.78277891    -0.79000
O88         O  0.86443178  0.13851815  0.79715782    -0.89200
C89         C  0.93671255  0.13643140  0.71873202     0.84700
O90         O  0.84792259  0.11816769  0.73742728    -0.67500
O91         O  0.89955757  0.13764299  0.60528920    -0.86700
C92         C  0.86347563  0.10664405  0.73989814     0.85500
C93         C  0.88300853  0.14280433  0.80645957     1.07100
H94         H  0.89043565  0.12048250  0.67648828     0.38900
O95         O  0.89264587  0.13521978  0.67969448    -1.09400
O96         O  0.87778390  0.17494194  0.65963480    -0.66000
Ni97       Ni  0.86672841  0.14779503  0.67183398     1.26300
O98         O  0.88213088  0.11387881  0.74208585    -0.66300
O99         O  0.86588960  0.14075371  0.62004836    -0.78600
C100        C  0.82462243  0.15858026  0.68752434     0.84900
O101        O  0.83985802  0.15940552  0.66528015    -0.65700
Ni102      Ni  0.91575737  0.14273636  0.64912633     1.27400
Ni103      Ni  0.89486498  0.14107282  0.73116871     1.26100
H104        H  0.87134083  0.16934417  0.72724182     0.39400
O105        O  0.34986248  0.45135886  0.07908151    -0.80500
O106        O  0.34310313  0.35682792  0.10158206    -0.65200
O107        O  0.36583560  0.41187046  0.09416014    -1.11800
C108        C  0.36494458  0.39819581  0.96564808     1.06400
O109        O  0.36716623  0.34601726  0.06357652    -0.78400
O110        O  0.39490786  0.37232081  0.03258202    -0.66000
Ni111      Ni  0.35507467  0.43408576  0.12212842     1.34900
C112        C  0.40329989  0.39021050  0.03582198     0.85100
O113        O  0.35557700  0.38507864  0.15296569    -0.79000
O114        O  0.35999858  0.41896421  0.16698611    -0.89200
C115        C  0.35173697  0.34224431  0.08451445     0.84700
O116        O  0.32657629  0.42510645  0.12487328    -0.67500
O117        O  0.36793361  0.37951127  0.97544689    -0.86700
C118        C  0.31699339  0.40829679  0.11652946     0.85500
C119        C  0.35836121  0.39985593  0.17614122     1.07100
H120        H  0.33912619  0.38493415  0.03816059     0.38900
O121        O  0.35337317  0.38529152  0.04646240    -1.09400
O122        O  0.39292069  0.40658153  0.03787909    -0.66000
Ni123      Ni  0.36393302  0.41292577  0.04134648     1.26300
O124        O  0.32569188  0.39300158  0.10159419    -0.66300
O125        O  0.36172225  0.41278785  0.98844204    -0.78600
C126        C  0.36287309  0.45531848  0.05322520     0.84900
O127        O  0.37317137  0.44106570  0.03878356    -0.65700
Ni128      Ni  0.36716162  0.36382321  0.02087874     1.27400
Ni129      Ni  0.35413389  0.38468035  0.09957610     1.26100
H130        H  0.38025512  0.41116390  0.10112006     0.39400
O131        O  0.34741980  0.44932223  0.59024419    -0.80500
O132        O  0.34477782  0.35531592  0.60289901    -0.65200
O133        O  0.36611125  0.41072410  0.59520625    -1.11800
C134        C  0.35778609  0.40186105  0.46739760     1.06400
O135        O  0.36427079  0.34483642  0.55623751    -0.78400
O136        O  0.39120273  0.37401747  0.53059511    -0.66000
Ni137      Ni  0.35793549  0.43152991  0.62863057     1.34900
C138        C  0.39942371  0.39208655  0.53083038     0.85100
O139        O  0.36033502  0.38220568  0.65337913    -0.79000
O140        O  0.36809610  0.41532087  0.66882648    -0.89200
C141        C  0.35209871  0.34097514  0.58326149     0.84700
O142        O  0.33042527  0.42162373  0.63961313    -0.67500
O143        O  0.36359566  0.38363358  0.47516542    -0.86700
C144        C  0.31967985  0.40586873  0.62949030     0.85500
C145        C  0.36621842  0.39606253  0.67667504     1.07100
H146        H  0.33587941  0.38462279  0.54302901     0.38900
O147        O  0.35056291  0.38540986  0.54825976    -1.09400
O148        O  0.38874308  0.40837428  0.53214923    -0.66000
Ni149      Ni  0.35992435  0.41361509  0.54375416     1.26300
O150        O  0.32694097  0.39145539  0.60975313    -0.66300
O151        O  0.35351479  0.41514340  0.49202755    -0.78600
C152        C  0.35742349  0.45519743  0.56154145     0.84900
O153        O  0.36753789  0.44241826  0.54253045    -0.65700
Ni154      Ni  0.36362972  0.36559200  0.51783477     1.27400
Ni155      Ni  0.35511506  0.38333555  0.60068077     1.26100
H156        H  0.38094185  0.40993863  0.59811700     0.39400
O157        O  0.15385275  0.44116387  0.31201832    -0.80500
O158        O  0.15136686  0.34754209  0.29875897    -0.65200
O159        O  0.13281107  0.40303410  0.30508789    -1.11800
C160        C  0.13808857  0.39351871  0.43359765     1.06400
O161        O  0.12993142  0.33723577  0.34350333    -0.78400
O162        O  0.10431255  0.36602260  0.36914924    -0.66000
Ni163      Ni  0.14284499  0.42402877  0.27258826     1.34900
C164        C  0.09712695  0.38409760  0.36752406     0.85100
O165        O  0.13804602  0.37496981  0.24679024    -0.79000
O166        O  0.13231535  0.40828496  0.23164719    -0.89200
C167        C  0.14328204  0.33325709  0.31885867     0.84700
O168        O  0.16982066  0.41396777  0.26256842    -0.67500
O169        O  0.13202436  0.37516740  0.42522010    -0.86700
C170        C  0.17950192  0.39811443  0.27296774     0.85500
C171        C  0.13328171  0.38911143  0.22343632     1.07100
H172        H  0.16050566  0.37685682  0.35901022     0.38900
O173        O  0.14596470  0.37758898  0.35289087    -1.09400
O174        O  0.10870088  0.40038896  0.36633854    -0.66000
Ni175      Ni  0.13798592  0.40579615  0.35703622     1.26300
O176        O  0.17120573  0.38376450  0.29271124    -0.66300
O177        O  0.14315085  0.40715538  0.40940725    -0.78600
C178        C  0.14310465  0.44738767  0.33908629     0.84900
O179        O  0.13186562  0.43468653  0.35769907    -0.65700
Ni180      Ni  0.13137992  0.35750290  0.38242087     1.27400
Ni181      Ni  0.14238528  0.37566475  0.30007671     1.26100
H182        H  0.11801299  0.40227388  0.30111058     0.39400
O183        O  0.14631630  0.44260172  0.81604937    -0.80500
O184        O  0.15565176  0.34743318  0.79636733    -0.65200
O185        O  0.13259044  0.40102058  0.80695559    -1.11800
C186        C  0.13769580  0.39212014  0.93438919     1.06400
O187        O  0.14635267  0.33424385  0.85140085    -0.78400
O188        O  0.11268974  0.35779961  0.86409355    -0.66000
Ni189      Ni  0.14096968  0.42362524  0.77564386     1.34900
C190        C  0.10174007  0.37376816  0.86640396     0.85100
O191        O  0.13866697  0.37358766  0.74839435    -0.79000
O192        O  0.13574315  0.40712976  0.73253314    -0.89200
C193        C  0.15369017  0.33234807  0.81897648     0.84700
O194        O  0.16987412  0.41808444  0.77209324    -0.67500
O195        O  0.13238889  0.37375325  0.92532386    -0.86700
C196        C  0.18025328  0.40191800  0.77762985     0.85500
C197        C  0.13577632  0.38791934  0.72454846     1.07100
H198        H  0.16503775  0.37873379  0.85783863     0.38900
O199        O  0.15031551  0.37713449  0.85343357    -1.09400
O200        O  0.10974936  0.39212057  0.86879474    -0.66000
Ni201      Ni  0.13776158  0.40348110  0.85875758     1.26300
O202        O  0.17237915  0.38505859  0.79029505    -0.66300
O203        O  0.14372042  0.40543639  0.91061334    -0.78600
C204        C  0.13470332  0.44555706  0.84393830     0.84900
O205        O  0.12637885  0.43042609  0.86140102    -0.65700
Ni206      Ni  0.13953208  0.35569687  0.88521744     1.27400
Ni207      Ni  0.14464871  0.37467805  0.80080205     1.26100
H208        H  0.11785974  0.39909811  0.80305566     0.39400
O209        O  0.16814519  0.64166919  0.39827740    -0.80500
O210        O  0.07002207  0.63487153  0.38314560    -0.65200
O211        O  0.12675855  0.65234896  0.39201407    -1.11800
C212        C  0.11321104  0.63857977  0.52067804     1.06400
O213        O  0.06126973  0.65565155  0.42875314    -0.78400
O214        O  0.08851402  0.67469214  0.47701680    -0.66000
Ni215      Ni  0.14638330  0.63808883  0.36251400     1.34900
C216        C  0.10537819  0.68444984  0.46979884     0.85100
O217        O  0.09818254  0.64877983  0.33423971    -0.79000
O218        O  0.12789982  0.63385064  0.32101559    -0.89200
C219        C  0.05638770  0.64466354  0.40057430     0.84700
O220        O  0.13875146  0.61179847  0.38321001    -0.67500
O221        O  0.09396834  0.63848507  0.51232862    -0.86700
C222        C  0.12072621  0.60343092  0.38174323     0.85500
C223        C  0.11088089  0.64162685  0.31105741     1.07100
H224        H  0.10030360  0.62279642  0.44202231     0.38900
O225        O  0.10012694  0.63758802  0.43814357    -1.09400
O226        O  0.12066915  0.67619247  0.45379256    -0.66000
Ni227      Ni  0.12779697  0.64766184  0.44482160     1.26300
O228        O  0.10449089  0.61400218  0.37720886    -0.66300
O229        O  0.12776465  0.64228847  0.49741123    -0.78600
C230        C  0.17100499  0.65145149  0.42849735     0.84900
O231        O  0.15618981  0.65687650  0.44917649    -0.65700
Ni232      Ni  0.07864143  0.64688936  0.46944099     1.27400
Ni233      Ni  0.09859886  0.64299944  0.38626151     1.26100
H234        H  0.12788591  0.66698665  0.38652749     0.39400
O235        O  0.17202936  0.64257796  0.89901740    -0.80500
O236        O  0.07443815  0.63580478  0.88262775    -0.65200
O237        O  0.13076627  0.65459480  0.89228138    -1.11800
C238        C  0.11787290  0.63970281  0.02043126     1.06400
O239        O  0.06432779  0.65505261  0.92929219    -0.78400
O240        O  0.09176540  0.67579229  0.97604151    -0.66000
Ni241      Ni  0.15067810  0.64108280  0.86202475     1.34900
C242        C  0.10897318  0.68546168  0.97103704     0.85100
O243        O  0.10187193  0.65161791  0.83446222    -0.79000
O244        O  0.13249510  0.63889672  0.81959721    -0.89200
C245        C  0.06010552  0.64362152  0.90138923     0.84700
O246        O  0.14299032  0.61376249  0.87832827    -0.67500
O247        O  0.09870445  0.64006199  0.01182591    -0.86700
C248        C  0.12493387  0.60565549  0.87551945     0.85500
C249        C  0.11472817  0.64540306  0.81062533     1.07100
H250        H  0.10484192  0.62378737  0.94078385     0.38900
O251        O  0.10449183  0.63863544  0.93776337    -1.09400
O252        O  0.12460414  0.67724396  0.95601651    -0.66000
Ni253      Ni  0.13218059  0.64912358  0.94477768     1.26300
O254        O  0.10876813  0.61646263  0.87425450    -0.66300
O255        O  0.13259022  0.64286877  0.99723307    -0.78600
C256        C  0.17516940  0.65380690  0.92747142     0.84900
O257        O  0.16048698  0.65918747  0.94858184    -0.65700
Ni258      Ni  0.08278241  0.64752224  0.96934533     1.27400
Ni259      Ni  0.10268174  0.64494359  0.88613429     1.26100
H260        H  0.13167852  0.66932319  0.88756699     0.39400
O261        O  0.15656703  0.87663151  0.17192864    -0.80500
O262        O  0.06763826  0.87158696  0.22157567    -0.65200
O263        O  0.12192845  0.85597548  0.19491562    -1.11800
C264        C  0.09699765  0.86569180  0.07077911     1.06400
O265        O  0.05324107  0.85078140  0.17935833    -0.78400
O266        O  0.07654189  0.82925364  0.13026154    -0.66000
Ni267      Ni  0.14540697  0.86865017  0.21881976     1.34900
C268        C  0.09426469  0.82124436  0.12828647     0.85100
O269        O  0.10031963  0.86024773  0.26259410    -0.79000
O270        O  0.13516078  0.86096601  0.26709753    -0.89200
C271        C  0.05191543  0.86208014  0.20815490     0.84700
O272        O  0.13608563  0.89636471  0.22442955    -0.67500
O273        O  0.07910957  0.86335806  0.08539990    -0.86700
C274        C  0.11841821  0.90429424  0.22120327     0.85500
C275        C  0.11715199  0.85899553  0.28141638     1.07100
H276        H  0.09112138  0.88340640  0.15238351     0.38900
O277        O  0.09161157  0.86869332  0.15705424    -1.09400
O278        O  0.11122330  0.83140609  0.13389059    -0.66000
Ni279      Ni  0.11859294  0.86037272  0.14199503     1.26300
O280        O  0.10205650  0.89356082  0.21460825    -0.66300
O281        O  0.11396374  0.86520908  0.08933559    -0.78600
C282        C  0.16130802  0.86276762  0.14899173     0.84900
O283        O  0.14685878  0.85313953  0.13156406    -0.65700
Ni284      Ni  0.06760258  0.85718524  0.13348506     1.27400
Ni285      Ni  0.09527300  0.86442859  0.20972444     1.26100
H286        H  0.12260567  0.84126295  0.19947945     0.39400
O287        O  0.15720225  0.87947125  0.66992666    -0.80500
O288        O  0.06768217  0.86848603  0.72173918    -0.65200
O289        O  0.12361704  0.85795624  0.69527168    -1.11800
C290        C  0.09642416  0.86620310  0.57143038     1.06400
O291        O  0.05824001  0.84465218  0.68071452    -0.78400
O292        O  0.08039082  0.82863665  0.62288191    -0.66000
Ni293      Ni  0.14645881  0.87225236  0.71760956     1.34900
C294        C  0.09831686  0.82119733  0.62625411     0.85100
O295        O  0.10203741  0.86044971  0.76306941    -0.79000
O296        O  0.13677853  0.86521941  0.76652202    -0.89200
C297        C  0.05387661  0.85633658  0.70785591     0.84700
O298        O  0.13505220  0.89913811  0.72089919    -0.67500
O299        O  0.07861349  0.86519115  0.58683137    -0.86700
C300        C  0.11670842  0.90570438  0.71997413     0.85500
C301        C  0.11915814  0.86132108  0.78137188     1.07100
H302        H  0.09106918  0.88267366  0.65284707     0.38900
O303        O  0.09233853  0.86803912  0.65764165    -1.09400
O304        O  0.11382988  0.83161113  0.63854721    -0.66000
Ni305      Ni  0.11937804  0.86101384  0.64229628     1.26300
O306        O  0.10085033  0.89380376  0.71558522    -0.66300
O307        O  0.11354023  0.86407187  0.58925439    -0.78600
C308        C  0.16201319  0.86528069  0.64760048     0.84900
O309        O  0.14770881  0.85501481  0.63106766    -0.65700
Ni310      Ni  0.06915375  0.85508622  0.63425482     1.27400
Ni311      Ni  0.09632831  0.86420578  0.71033529     1.26100
H312        H  0.12548599  0.84346580  0.70065193     0.39400
O313        O  0.65375251  0.56280217  0.07215056    -0.80500
O314        O  0.65163835  0.65559890  0.12204661    -0.65200
O315        O  0.63572820  0.59964921  0.09603901    -1.11800
C316        C  0.64459163  0.62629630  0.97202129     1.06400
O317        O  0.62811529  0.66478175  0.08189409    -0.78400
O318        O  0.60788027  0.64306296  0.02930613    -0.66000
Ni319      Ni  0.64757860  0.57611395  0.11892305     1.34900
C320        C  0.59972548  0.62502617  0.03220595     0.85100
O321        O  0.64016342  0.62158148  0.16398137    -0.79000
O322        O  0.64118777  0.58671115  0.16721412    -0.89200
C323        C  0.64214780  0.66983325  0.10502420     0.84700
O324        O  0.67557138  0.58680360  0.12403241    -0.67500
O325        O  0.64291344  0.64411779  0.98666279    -0.86700
C326        C  0.68348147  0.60511110  0.12448899     0.85500
C327        C  0.63928083  0.60443611  0.18218132     1.07100
H328        H  0.66274341  0.63219944  0.05333818     0.38900
O329        O  0.64806923  0.63081938  0.05825624    -1.09400
O330        O  0.61022240  0.60912804  0.03909070    -0.66000
Ni331      Ni  0.63936744  0.60376020  0.04336111     1.26300
O332        O  0.67321126  0.62118610  0.11717596    -0.66300
O333        O  0.64311042  0.60925138  0.99043910    -0.78600
C334        C  0.64071777  0.56039689  0.04567339     0.84900
O335        O  0.63163204  0.57581049  0.03192024    -0.65700
Ni336      Ni  0.63560742  0.65387416  0.03492723     1.27400
Ni337      Ni  0.64421944  0.62695834  0.11115275     1.26100
H338        H  0.62106130  0.59832024  0.10106532     0.39400
O339        O  0.65261129  0.56322724  0.57613843    -0.80500
O340        O  0.65355417  0.65577180  0.62174147    -0.65200
O341        O  0.63497495  0.60067287  0.59642564    -1.11800
C342        C  0.64421124  0.62636166  0.47225405     1.06400
O343        O  0.62938445  0.66525308  0.58309956    -0.78400
O344        O  0.60781343  0.64382329  0.53251415    -0.66000
Ni345      Ni  0.64445634  0.57680649  0.62135007     1.34900
C346        C  0.59977984  0.62570037  0.53359255     0.85100
O347        O  0.64090410  0.62266266  0.66426235    -0.79000
O348        O  0.63621384  0.58800056  0.66814386    -0.89200
C349        C  0.64382211  0.67010922  0.60555854     0.84700
O350        O  0.67242438  0.58622081  0.63093968    -0.67500
O351        O  0.64174200  0.64413483  0.48677968    -0.86700
C352        C  0.68203865  0.60362807  0.62801877     0.85500
C353        C  0.63700657  0.60597857  0.68270796     1.07100
H354        H  0.66302217  0.63255990  0.55312047     0.38900
O355        O  0.64837930  0.63117986  0.55834681    -1.09400
O356        O  0.61043269  0.60961653  0.53788309    -0.66000
Ni357      Ni  0.63952702  0.60416839  0.54376212     1.26300
O358        O  0.67353009  0.62002628  0.61639054    -0.66300
O359        O  0.64389868  0.60938078  0.49096319    -0.78600
C360        C  0.64143730  0.56091590  0.54708969     0.84900
O361        O  0.63230273  0.57605777  0.53238770    -0.65700
Ni362      Ni  0.63573124  0.65421872  0.53561000     1.27400
Ni363      Ni  0.64483797  0.62751963  0.61126914     1.26100
H364        H  0.62020944  0.60043013  0.60070819     0.39400
O365        O  0.85770422  0.55771249  0.32015475    -0.80500
O366        O  0.84636966  0.65448684  0.29767050    -0.65200
O367        O  0.86865745  0.60044793  0.31126207    -1.11800
C368        C  0.86025124  0.60977840  0.43792172     1.06400
O369        O  0.85354581  0.66734091  0.35375365    -0.78400
O370        O  0.88717728  0.64419605  0.36926989    -0.66000
Ni371      Ni  0.86019609  0.57783974  0.28025765     1.34900
C372        C  0.89783269  0.62794528  0.37064856     0.85100
O373        O  0.86563376  0.62849262  0.25273347    -0.79000
O374        O  0.86277081  0.59494941  0.23663396    -0.89200
C375        C  0.84741826  0.66946374  0.32055279     0.84700
O376        O  0.83120736  0.58244010  0.28283218    -0.67500
O377        O  0.86615778  0.62793217  0.42866775    -0.86700
C378        C  0.82147074  0.59918160  0.28027042     0.85500
C379        C  0.86578421  0.61406665  0.22870303     1.07100
H380        H  0.83450758  0.62283145  0.35785081     0.38900
O381        O  0.84935559  0.62442093  0.35527067    -1.09400
O382        O  0.88953685  0.60984690  0.37375350    -0.66000
Ni383      Ni  0.86207665  0.59822201  0.36255061     1.26300
O384        O  0.82982743  0.61695775  0.28688955    -0.66300
O385        O  0.85483977  0.59637989  0.41397730    -0.78600
C386        C  0.86859768  0.55611248  0.34949387     0.84900
O387        O  0.87453882  0.57195141  0.36757410    -0.65700
Ni388      Ni  0.85968567  0.64587884  0.38796086     1.27400
Ni389      Ni  0.85704607  0.62705934  0.30350274     1.26100
H390        H  0.88348069  0.60202224  0.30832551     0.39400
O391        O  0.85405628  0.56320163  0.82245142    -0.80500
O392        O  0.84487813  0.65767856  0.79963635    -0.65200
O393        O  0.86827936  0.60437348  0.81101222    -1.11800
C394        C  0.86362366  0.61310974  0.93833168     1.06400
O395        O  0.85307723  0.67083749  0.85519047    -0.78400
O396        O  0.88740300  0.64836876  0.86786514    -0.66000
Ni397      Ni  0.85977281  0.58152192  0.78088386     1.34900
C398        C  0.89885514  0.63271341  0.86884193     0.85100
O399        O  0.86197280  0.63136041  0.75201690    -0.79000
O400        O  0.86534843  0.59767626  0.73734655    -0.89200
C401        C  0.84625822  0.67272244  0.82228780     0.84700
O402        O  0.83094680  0.58718186  0.77563865    -0.67500
O403        O  0.86854783  0.63162547  0.92941542    -0.86700
C404        C  0.82054831  0.60335480  0.78057760     0.85500
C405        C  0.86506761  0.61685140  0.72870566     1.07100
H406        H  0.83573280  0.62599088  0.86147717     0.38900
O407        O  0.85041842  0.62798324  0.85720662    -1.09400
O408        O  0.89148290  0.61410751  0.87177713    -0.66000
Ni409      Ni  0.86362058  0.60196091  0.86271777     1.26300
O410        O  0.82828634  0.62010723  0.79377909    -0.66300
O411        O  0.85801321  0.59979421  0.91445259    -0.78600
C412        C  0.86632900  0.56011123  0.84957744     0.84900
O413        O  0.87556304  0.57525641  0.86542270    -0.65700
Ni414      Ni  0.86064028  0.64955675  0.88916403     1.27400
Ni415      Ni  0.85601036  0.63050960  0.80449508     1.26100
H416        H  0.88295994  0.60636250  0.80674997     0.39400
O417        O  0.65085782  0.93940810  0.05543657    -0.80500
O418        O  0.65041027  0.84504309  0.03903181    -0.65200
O419        O  0.63113344  0.90049650  0.04577027    -1.11800
C420        C  0.63460042  0.88849446  0.17413196     1.06400
O421        O  0.62645244  0.83504958  0.07923801    -0.78400
O422        O  0.60111653  0.86280626  0.10817720    -0.66000
Ni423      Ni  0.64143198  0.92210855  0.01479474     1.34900
C424        C  0.59407293  0.88090794  0.10590544     0.85100
O425        O  0.63819641  0.87304258  0.98722051    -0.79000
O426        O  0.63260863  0.90644997  0.97243551    -0.89200
C427        C  0.64121730  0.83075689  0.05765554     0.84700
O428        O  0.66886828  0.91274240  0.00722152    -0.67500
O429        O  0.62903525  0.87012020  0.16484867    -0.86700
C430        C  0.67851238  0.89672432  0.01691280     0.85500
C431        C  0.63417577  0.88737091  0.96389535     1.07100
H432        H  0.65769114  0.87369247  0.10059022     0.38900
O433        O  0.64330948  0.87445792  0.09337274    -1.09400
O434        O  0.60571203  0.89710116  0.10496490    -0.66000
Ni435      Ni  0.63509994  0.90252636  0.09817286     1.26300
O436        O  0.67004529  0.88180274  0.03515595    -0.66300
O437        O  0.63907978  0.90282277  0.15082478    -0.78600
C438        C  0.63963848  0.94477342  0.08254456     0.84900
O439        O  0.62863675  0.93138262  0.10005682    -0.65700
Ni440      Ni  0.62813271  0.85371208  0.12052528     1.27400
Ni441      Ni  0.64115176  0.87320081  0.04044799     1.26100
H442        H  0.61644042  0.89957272  0.04072236     0.39400
O443        O  0.64908232  0.93935129  0.55104091    -0.80500
O444        O  0.65003092  0.84451237  0.54126539    -0.65200
O445        O  0.63021844  0.89971881  0.54632818    -1.11800
C446        C  0.64148948  0.89097401  0.67494377     1.06400
O447        O  0.62830787  0.83560510  0.58588779    -0.78400
O448        O  0.60533313  0.86271883  0.62263623    -0.66000
Ni449      Ni  0.63932298  0.92065392  0.51266322     1.34900
C450        C  0.59708989  0.88014376  0.61788636     0.85100
O451        O  0.63532661  0.87064736  0.48918103    -0.79000
O452        O  0.63011580  0.90372984  0.47212893    -0.89200
C453        C  0.64171246  0.83070712  0.56203270     0.84700
O454        O  0.66697197  0.91193652  0.50441180    -0.67500
O455        O  0.63805003  0.87182127  0.66812788    -0.86700
C456        C  0.67696659  0.89616085  0.51420111     0.85500
C457        C  0.63111528  0.88443005  0.46495691     1.07100
H458        H  0.65997244  0.87558923  0.59868734     0.38900
O459        O  0.64522558  0.87536938  0.59403192    -1.09400
O460        O  0.60744827  0.89651633  0.60936524    -0.66000
Ni461      Ni  0.63616482  0.90314150  0.59799462     1.26300
O462        O  0.66890254  0.88109126  0.53243223    -0.66300
O463        O  0.64228428  0.90506439  0.65003485    -0.78600
C464        C  0.63873246  0.94497146  0.57908689     0.84900
O465        O  0.62864549  0.93172278  0.59856034    -0.65700
Ni466      Ni  0.63344623  0.85464500  0.62571715     1.27400
Ni467      Ni  0.64048737  0.87245551  0.54185377     1.26100
H468        H  0.61537499  0.89854994  0.54315218     0.39400
O469        O  0.84791107  0.94273652  0.32746421    -0.80500
O470        O  0.84325216  0.84648974  0.34713538    -0.65200
O471        O  0.86404879  0.90222794  0.33573328    -1.11800
C472        C  0.85564903  0.89190179  0.20903547     1.06400
O473        O  0.85881733  0.83446800  0.29682177    -0.78400
O474        O  0.88782662  0.86311267  0.27543774    -0.66000
Ni475      Ni  0.85520798  0.92400190  0.36745291     1.34900
C476        C  0.89628439  0.88100263  0.27257276     0.85100
O477        O  0.85969632  0.87422692  0.39487343    -0.79000
O478        O  0.86234741  0.90797960  0.41021456    -0.89200
C479        C  0.84855940  0.83159768  0.32654459     0.84700
O480        O  0.82681487  0.91526772  0.37323470    -0.67500
O481        O  0.86233341  0.87411623  0.21742695    -0.86700
C482        C  0.81702866  0.89822771  0.36740731     0.85500
C483        C  0.86283959  0.88875247  0.41831345     1.07100
H484        H  0.83279070  0.87526226  0.28624150     0.38900
O485        O  0.84756382  0.87596476  0.29059950    -1.09400
O486        O  0.88579310  0.89742282  0.27178658    -0.66000
Ni487      Ni  0.85740676  0.90390110  0.28438387     1.26300
O488        O  0.82535309  0.88239674  0.35350449    -0.66300
O489        O  0.85010593  0.90478434  0.23325865    -0.78600
C490        C  0.85839292  0.94643641  0.29813734     0.84900
O491        O  0.86660160  0.93197599  0.28037620    -0.65700
Ni492      Ni  0.86033160  0.85586930  0.25984910     1.27400
Ni493      Ni  0.85337524  0.87463090  0.34276490     1.26100
H494        H  0.87891277  0.90182531  0.33851421     0.39400
O495        O  0.84913819  0.94397992  0.82360020    -0.80500
O496        O  0.84132823  0.84931585  0.84579300    -0.65200
O497        O  0.86482619  0.90400035  0.83671981    -1.11800
C498        C  0.86152917  0.89101584  0.70875503     1.06400
O499        O  0.86340994  0.83734965  0.80468813    -0.78400
O500        O  0.89199294  0.86404501  0.77647750    -0.66000
Ni501      Ni  0.85537954  0.92642490  0.86575618     1.34900
C502        C  0.90065542  0.88189714  0.77801449     0.85100
O503        O  0.85546213  0.87737379  0.89618504    -0.79000
O504        O  0.86142783  0.91110614  0.90981295    -0.89200
C505        C  0.84899705  0.83433075  0.82822008     0.71900
O506        O  0.82686500  0.91798653  0.87081230    -0.67500
O507        O  0.86554423  0.87253428  0.71846392    -0.86700
C508        C  0.81656315  0.90156756  0.86265228     0.85500
C509        C  0.85948695  0.89204540  0.91905947     1.07100
H510        H  0.83639223  0.87729970  0.78257971     0.38900
O511        O  0.85079589  0.87760090  0.78994055    -1.09400
O512        O  0.89042143  0.89845114  0.77830154    -0.66000
Ni513      Ni  0.86152775  0.90517867  0.78423980     1.26300
O514        O  0.82451804  0.88600175  0.84711296    -0.66300
O515        O  0.85779258  0.90531796  0.73173826    -0.78600
C516        C  0.86128997  0.94764722  0.79637253     0.84900
O517        O  0.87094756  0.93321517  0.78106730    -0.65700
Ni518      Ni  0.86418721  0.85622195  0.76332508     1.27400
Ni519      Ni  0.85274609  0.87700926  0.84294411     1.26100
H520        H  0.87938718  0.90297623  0.84241698     0.39400
O521        O  0.65600175  0.13387505  0.18742855    -0.80500
O522        O  0.56087625  0.12975555  0.16015964    -0.65200
O523        O  0.61712928  0.14816099  0.17115052    -1.11800
C524        C  0.60111145  0.13660385  0.29950413     1.06400
O525        O  0.55174554  0.15183800  0.20348241    -0.78400
O526        O  0.57717415  0.17069184  0.25541451    -0.66000
Ni527      Ni  0.63870420  0.13551799  0.14414363     1.34900
C528        C  0.59323274  0.18135549  0.24648079     0.85100
O529        O  0.58995893  0.14235820  0.11151939    -0.79000
O530        O  0.62333526  0.13667377  0.09816965    -0.89200
C531        C  0.54715942  0.14044413  0.17566153     0.84700
O532        O  0.63009737  0.10737281  0.15219580    -0.67500
O533        O  0.58238949  0.13394117  0.28875099    -0.86700
C534        C  0.61222239  0.09878505  0.15425321     0.85500
C535        C  0.60468700  0.14013129  0.08848748     1.07100
H536        H  0.59126599  0.11923538  0.22137107     0.38900
O537        O  0.59034689  0.13389403  0.21650208    -1.09400
O538        O  0.60835521  0.17387358  0.22885423    -0.66000
Ni539      Ni  0.61730820  0.14565226  0.22436540     1.26300
O540        O  0.59572716  0.10904863  0.15697665    -0.66300
O541        O  0.61608963  0.14246141  0.27811385    -0.78600
C542        C  0.65988136  0.14873706  0.20962519     0.84900
O543        O  0.64528234  0.15669883  0.22798830    -0.65700
Ni544      Ni  0.56791519  0.14280801  0.24551545     1.27400
Ni545      Ni  0.58946396  0.13800487  0.16409556     1.26100
H546        H  0.61756724  0.16267296  0.16452825     0.39400
O547        O  0.66035237  0.13484197  0.68625353    -0.80500
O548        O  0.56590851  0.13120764  0.65495118    -0.65200
O549        O  0.62182242  0.14972524  0.66778641    -1.11800
C550        C  0.60660825  0.14004162  0.79666029     1.06400
O551        O  0.55446514  0.15062781  0.70105718    -0.78400
O552        O  0.58035955  0.17295268  0.74861847    -0.66000
Ni553      Ni  0.64366533  0.13641212  0.64234447     1.34900
C554        C  0.59682859  0.18342908  0.74125261     0.85100
O555        O  0.59548229  0.14378914  0.60711901    -0.79000
O556        O  0.62899458  0.13748924  0.59604233    -0.89200
C557        C  0.55134754  0.14021638  0.67136950     0.84700
O558        O  0.63468757  0.10831095  0.65027004    -0.67500
O559        O  0.58754785  0.13816363  0.78731604    -0.86700
C560        C  0.61664123  0.10005148  0.65129447     0.85500
C561        C  0.61066649  0.14122387  0.58503121     1.07100
H562        H  0.59568752  0.12090634  0.71793031     0.38900
O563        O  0.59469232  0.13555299  0.71301255    -1.09400
O564        O  0.61262166  0.17563236  0.72593765    -0.66000
Ni565      Ni  0.62174740  0.14738248  0.72073578     1.26300
O566        O  0.60035402  0.11063570  0.65337393    -0.66300
O567        O  0.62121806  0.14406427  0.77376331    -0.78600
C568        C  0.66414774  0.15015445  0.70739281     0.84900
O569        O  0.64947581  0.15862038  0.72451903    -0.65700
Ni570      Ni  0.57224845  0.14432177  0.74291723     1.27400
Ni571      Ni  0.59426270  0.13961426  0.66009871     1.26100
H572        H  0.62247598  0.16420386  0.66092539     0.39400
O573        O  0.66241700  0.36999873  0.45788808    -0.80500
O574        O  0.56697049  0.37003797  0.48436744    -0.65200
O575        O  0.62314977  0.35385059  0.47400941    -1.11800
C576        C  0.60806157  0.36491125  0.34527148     1.06400
O577        O  0.55822719  0.34785154  0.44020148    -0.78400
O578        O  0.58306269  0.32983680  0.38929224    -0.66000
Ni579      Ni  0.64491657  0.36767769  0.50071096     1.34900
C580        C  0.59895019  0.31981048  0.39827433     0.85100
O581        O  0.59602165  0.35813761  0.53357825    -0.79000
O582        O  0.62949679  0.36596058  0.54619451    -0.89200
C583        C  0.55320550  0.35955459  0.46679548     0.84700
O584        O  0.63649805  0.39540734  0.49227258    -0.67500
O585        O  0.58915377  0.36643703  0.35502609    -0.86700
C586        C  0.61856155  0.40294255  0.49202001     0.85500
C587        C  0.61096461  0.36146921  0.55629171     1.07100
H588        H  0.59778385  0.38203387  0.42387586     0.38900
O589        O  0.59667435  0.36729960  0.42840145    -1.09400
O590        O  0.61427540  0.32798745  0.41570427    -0.66000
Ni591      Ni  0.62346308  0.35665563  0.42100734     1.26300
O592        O  0.60205613  0.39180870  0.48947798    -0.66300
O593        O  0.62268842  0.36022828  0.36764390    -0.78600
C594        C  0.66589840  0.35536960  0.43551232     0.84900
O595        O  0.65110901  0.34672841  0.41750790    -0.65700
Ni596      Ni  0.57440381  0.35739966  0.39838058     1.27400
Ni597      Ni  0.59552585  0.36276166  0.48090872     1.26100
H598        H  0.62353066  0.33934547  0.48052037     0.39400
O599        O  0.66627028  0.35728884  0.97624703    -0.80500
O600        O  0.56970511  0.37665779  0.97648864    -0.65200
O601        O  0.62331637  0.35285672  0.97632704    -1.11800
C602        C  0.61678026  0.36699695  0.84593636     1.06400
O603        O  0.56075598  0.35476921  0.93180337    -0.78400
O604        O  0.58605690  0.33381555  0.88457985    -0.66000
Ni605      Ni  0.64403378  0.36436326  0.00855703     1.34900
C606        C  0.60069343  0.32237914  0.89500728     0.85100
O607        O  0.59337528  0.36079713  0.02995606    -0.79000
O608        O  0.62489809  0.37176360  0.04709037    -0.89200
C609        C  0.55583773  0.36661994  0.95833502     0.84700
O610        O  0.64226452  0.39082417  0.98578124    -0.67500
O611        O  0.59763438  0.36984417  0.85241798    -0.86700
C612        C  0.62635820  0.40192537  0.98604301     0.85500
C613        C  0.60625082  0.36654305  0.05475621     1.07100
H614        H  0.60422361  0.38458237  0.92216102     0.38900
O615        O  0.60146774  0.37000061  0.92645163    -1.09400
O616        O  0.61589129  0.32913046  0.91454565    -0.66000
Ni617      Ni  0.62720384  0.35678349  0.92354592     1.26300
O618        O  0.60790517  0.39406375  0.98768902    -0.66300
O619        O  0.62977525  0.36134855  0.87064891    -0.78600
C620        C  0.66865030  0.34804357  0.94549988     0.84900
O621        O  0.65387180  0.34456809  0.92280810    -0.65700
Ni622      Ni  0.57995496  0.36236484  0.89292830     1.27400
Ni623      Ni  0.59698788  0.36575851  0.97805079     1.26100
H624        H  0.62145144  0.33830369  0.98206963     0.39400
O625        O  0.33757592  0.63908291  0.44208871    -0.80500
O626        O  0.43362634  0.63867211  0.46226498    -0.65200
O627        O  0.37766566  0.65637253  0.45303283    -1.11800
C628        C  0.38980822  0.64963880  0.32456811     1.06400
O629        O  0.44450591  0.66013206  0.41794778    -0.78400
O630        O  0.41708333  0.68406959  0.38379076    -0.66000
Ni631      Ni  0.35617193  0.64397270  0.48295222     1.34900
C632        C  0.39933893  0.69186548  0.38536799     0.85100
O633        O  0.40594094  0.65081482  0.51167298    -0.79000
O634        O  0.37231664  0.64786004  0.52705449    -0.89200
C635        C  0.44805890  0.64887869  0.44608722     0.84700
O636        O  0.36432602  0.61596605  0.47921393    -0.67500
O637        O  0.40869615  0.65348634  0.33321336    -0.86700
C638        C  0.38154661  0.60766608  0.47302128     0.85500
C639        C  0.39140610  0.65014829  0.53548666     1.07100
H640        H  0.40403625  0.62873515  0.40071944     0.38900
O641        O  0.40391314  0.64333259  0.40641010    -1.09400
O642        O  0.38276246  0.68118606  0.39102598    -0.66000
Ni643      Ni  0.37599271  0.65222032  0.40052695     1.26300
O644        O  0.39803232  0.61801447  0.46543342    -0.66300
O645        O  0.37533580  0.64733234  0.34826268    -0.78600
C646        C  0.33336150  0.65180177  0.41648232     0.84900
O647        O  0.34770734  0.66049612  0.39762496    -0.65700
Ni648      Ni  0.42527322  0.65628035  0.37733086     1.27400
Ni649      Ni  0.40538082  0.64695861  0.45895624     1.26100
H650        H  0.37784802  0.67105805  0.45806870     0.39400
O651        O  0.33974465  0.63758780  0.94687325    -0.80500
O652        O  0.43282405  0.63931142  0.96210488    -0.65200
O653        O  0.37752223  0.65827755  0.95277309    -1.11800
C654        C  0.38724116  0.64697111  0.82564103     1.06400
O655        O  0.44335772  0.65972822  0.91590060    -0.78400
O656        O  0.41494907  0.68350798  0.88351152    -0.66000
Ni657      Ni  0.35662438  0.64863373  0.98608207     1.34900
C658        C  0.39701446  0.69088251  0.88163106     0.85100
O659        O  0.40569056  0.65340261  0.01154024    -0.79000
O660        O  0.37251182  0.65876032  0.02722486    -0.89200
C661        C  0.44719877  0.64872543  0.94429837     0.84700
O662        O  0.36572063  0.62130381  0.99507169    -0.67500
O663        O  0.40588972  0.65255715  0.83337876    -0.86700
C664        C  0.38111822  0.61124990  0.98412533     0.85500
C665        C  0.39174291  0.65781465  0.03508797     1.07100
H666        H  0.40303892  0.62848861  0.90229682     0.38900
O667        O  0.40266880  0.64320168  0.90685262    -1.09400
O668        O  0.38046905  0.67998886  0.88646897    -0.66000
Ni669      Ni  0.37447695  0.65149133  0.90134221     1.26300
O670        O  0.39649922  0.61973001  0.96758233    -0.66300
O671        O  0.37312498  0.64416468  0.84999366    -0.78600
C672        C  0.33285117  0.64899687  0.92141643     0.84900
O673        O  0.34547162  0.65857443  0.89987605    -0.65700
Ni674      Ni  0.42334807  0.65582872  0.87641335     1.27400
Ni675      Ni  0.40478550  0.64825223  0.95894784     1.26100
H676        H  0.37836442  0.67317170  0.95515278     0.39400
O677        O  0.32628773  0.87259558  0.15630692    -0.80500
O678        O  0.42495671  0.87312482  0.14566336    -0.65200
O679        O  0.36698345  0.85970062  0.15387176    -1.11800
C680        C  0.38035680  0.87771953  0.28089628     1.06400
O681        O  0.43058940  0.85303549  0.19404901    -0.78400
O682        O  0.40246889  0.83861420  0.24449195    -0.66000
Ni683      Ni  0.34871136  0.87410685  0.12176479     1.34900
C684        C  0.38518579  0.82958773  0.23753346     0.85100
O685        O  0.39625303  0.85934781  0.09701781    -0.79000
O686        O  0.36798419  0.87620456  0.08115456    -0.89200
C687        C  0.43724152  0.86284075  0.16568153     0.84700
O688        O  0.35768973  0.90040499  0.14053098    -0.67500
O689        O  0.39956886  0.87682986  0.27291727    -0.86700
C690        C  0.37609789  0.90766270  0.13738892     0.85500
C691        C  0.38443958  0.86698232  0.07261555     1.07100
H692        H  0.39462305  0.88954535  0.20095706     0.38900
O693        O  0.39388321  0.87463368  0.19912293    -1.09400
O694        O  0.37084197  0.83807609  0.21908899    -0.66000
Ni695      Ni  0.36565327  0.86652336  0.20590250     1.26300
O696        O  0.39168083  0.89599609  0.13476345    -0.66300
O697        O  0.36566885  0.87379411  0.25782689    -0.78600
C698        C  0.32251092  0.86394810  0.18738303     0.84900
O699        O  0.33672295  0.85902947  0.21003900    -0.65700
Ni700      Ni  0.41431265  0.86519186  0.23249618     1.27400
Ni701      Ni  0.39572297  0.86708252  0.14821151     1.26100
H702        H  0.36494773  0.84496915  0.15027036     0.39400
O703        O  0.32680359  0.87582916  0.66114355    -0.80500
O704        O  0.42384170  0.87946891  0.64542329    -0.65200
O705        O  0.36700866  0.86142741  0.65142889    -1.11800
C706        C  0.37976780  0.86994706  0.78133393     1.06400
O707        O  0.43231280  0.85687462  0.68843239    -0.78400
O708        O  0.40464199  0.83542341  0.73232008    -0.66000
Ni709      Ni  0.34680593  0.87523721  0.62211580     1.34900
C710        C  0.38727294  0.82647374  0.72561241     0.85100
O711        O  0.39628164  0.86709593  0.59441011    -0.79000
O712        O  0.36410965  0.87586505  0.57892169    -0.89200
C713        C  0.43748267  0.86942757  0.66256370     0.84700
O714        O  0.35533621  0.90259277  0.63538665    -0.67500
O715        O  0.39895199  0.86957392  0.77295933    -0.86700
C716        C  0.37334618  0.91068741  0.63860963     0.85500
C717        C  0.38259029  0.87146592  0.57043683     1.07100
H718        H  0.39331535  0.88917657  0.70474255     0.38900
O719        O  0.39330442  0.87453931  0.69933908    -1.09400
O720        O  0.37198517  0.83571190  0.71142875    -0.66000
Ni721      Ni  0.36541216  0.86445986  0.70441720     1.26300
O722        O  0.38961996  0.90005439  0.64015458    -0.66300
O723        O  0.36505330  0.86810628  0.75759708    -0.78600
C724        C  0.32268879  0.86288940  0.68680771     0.84900
O725        O  0.33689524  0.85507248  0.70640986    -0.65700
Ni726      Ni  0.41456516  0.86348699  0.72954834     1.27400
Ni727      Ni  0.39525801  0.87098330  0.64696543     1.26100
H728        H  0.36623653  0.84690454  0.64508334     0.39400
O729        O  0.34928236  0.06760228  0.06226139    -0.80500
O730        O  0.34086873  0.16594966  0.04135810    -0.65200
O731        O  0.35953235  0.11057161  0.05652903    -1.11800
C732        C  0.34868073  0.12083231  0.18248825     1.06400
O733        O  0.34994446  0.17869083  0.09674847    -0.78400
O734        O  0.38047472  0.15255111  0.11743311    -0.66000
Ni735      Ni  0.34920682  0.08895870  0.02454558     1.34900
C736        C  0.38928744  0.13526394  0.12048310     0.85100
O737        O  0.35907261  0.13875697  0.99752365    -0.79000
O738        O  0.34902724  0.10666723  0.98141676    -0.89200
C739        C  0.34353000  0.18100709  0.06370912     0.84700
O740        O  0.32093728  0.09457648  0.03459241    -0.67500
O741        O  0.35572342  0.13877605  0.17418602    -0.86700
C742        C  0.31243980  0.11172500  0.02818671     0.85500
C743        C  0.35490343  0.12507991  0.97313726     1.07100
H744        H  0.32628772  0.13610399  0.10082986     0.38900
O745        O  0.34122114  0.13632903  0.09909908    -1.09400
O746        O  0.37908475  0.11806468  0.12165729    -0.66000
Ni747      Ni  0.35112829  0.10914350  0.10746036     1.26300
O748        O  0.32223866  0.12916611  0.03064187    -0.66300
O749        O  0.34225003  0.10822841  0.15796549    -0.78600
C750        C  0.35648642  0.06621575  0.09505434     0.84900
O751        O  0.36065101  0.08190583  0.11480398    -0.65700
Ni752      Ni  0.35261121  0.15702770  0.13232530     1.27400
Ni753      Ni  0.34983033  0.13799477  0.04793328     1.26100
H754        H  0.37445837  0.11091784  0.05474169     0.39400
O755        O  0.33504860  0.07186159  0.56341673    -0.80500
O756        O  0.33971003  0.16492438  0.54252781    -0.65200
O757        O  0.35704588  0.10932542  0.55429282    -1.11800
C758        C  0.34842448  0.12226159  0.68160113     1.06400
O759        O  0.36187425  0.17487730  0.58617406    -0.78400
O760        O  0.38536395  0.14697664  0.61999077    -0.66000
Ni761      Ni  0.34678799  0.08782976  0.52304792     1.34900
C762        C  0.39192049  0.12865352  0.62000468     0.85100
O763        O  0.35294916  0.13616475  0.49339971    -0.79000
O764        O  0.35793446  0.10239593  0.48118710    -0.89200
C765        C  0.34834568  0.17914925  0.56187718     0.84700
O766        O  0.32012962  0.09816399  0.51118556    -0.67500
O767        O  0.35481102  0.14049103  0.67263333    -0.86700
C768        C  0.31074018  0.11441844  0.52001290     0.85500
C769        C  0.35736580  0.12138607  0.47135059     1.07100
H770        H  0.32916954  0.13723869  0.60421331     0.38900
O771        O  0.34374614  0.13608708  0.59909685    -1.09400
O772        O  0.37992814  0.11275670  0.61755946    -0.66000
Ni773      Ni  0.35088366  0.10791708  0.60607793     1.26300
O774        O  0.31923706  0.12907680  0.53858665    -0.66300
O775        O  0.34456141  0.10798326  0.65800382    -0.78600
C776        C  0.34564935  0.06604798  0.59109976     0.84900
O777        O  0.35652638  0.07905578  0.60958669    -0.65700
Ni778      Ni  0.35805471  0.15662496  0.62784426     1.27400
Ni779      Ni  0.34808455  0.13673572  0.54646036     1.26100
H780        H  0.37191203  0.10966033  0.55124824     0.39400
O781        O  0.14676271  0.06704718  0.32517435    -0.80500
O782        O  0.14555882  0.16212701  0.33397020    -0.65200
O783        O  0.12714533  0.10514162  0.32961341    -1.11800
C784        C  0.13698199  0.11430124  0.20043653     1.06400
O785        O  0.12293265  0.16832520  0.28985148    -0.78400
O786        O  0.10136287  0.13982259  0.25267604    -0.66000
Ni787      Ni  0.13642211  0.08495194  0.36338866     1.34900
C788        C  0.09305413  0.12217904  0.25906298     0.85100
O789        O  0.13164530  0.13467455  0.38628649    -0.79000
O790        O  0.12658470  0.10127348  0.40357706    -0.89200
C791        C  0.13586814  0.17489111  0.31378951     0.84700
O792        O  0.16374330  0.09588234  0.37230700    -0.67500
O793        O  0.13411124  0.13337431  0.20728768    -0.86700
C794        C  0.17353102  0.11236856  0.36277311     0.85500
C795        C  0.12723221  0.12068806  0.41045299     1.07100
H796        H  0.15604170  0.13106445  0.27676912     0.38900
O797        O  0.14132162  0.13031914  0.28151286    -1.09400
O798        O  0.10341827  0.10643950  0.26801067    -0.66000
Ni799      Ni  0.13249020  0.10190386  0.27785419     1.26300
O800        O  0.16541553  0.12671140  0.34372640    -0.66300
O801        O  0.13764852  0.10025652  0.22541661    -0.78600
C802        C  0.13662407  0.06047856  0.29701718     0.84900
O803        O  0.12573666  0.07271192  0.27784010    -0.65700
Ni804      Ni  0.12907979  0.15007685  0.24984254     1.27400
Ni805      Ni  0.13683027  0.13318374  0.33373088     1.26100
H806        H  0.11232434  0.10531281  0.33309957     0.39400
O807        O  0.15287344  0.06862626  0.81520928    -0.80500
O808        O  0.15149847  0.16248218  0.83582608    -0.65200
O809        O  0.13320803  0.10571119  0.82833213    -1.11800
C810        C  0.13688873  0.11952110  0.69925757     1.06400
O811        O  0.12631311  0.16955979  0.79713426    -0.78400
O812        O  0.10359634  0.14270841  0.75853901    -0.66000
Ni813      Ni  0.14462299  0.08454450  0.85755838     1.34900
C814        C  0.09558391  0.12492807  0.76473803     0.85100
O815        O  0.14013984  0.13319227  0.88725214    -0.79000
O816        O  0.13694297  0.09910274  0.90137105    -0.89200
C817        C  0.14055723  0.17564071  0.81896537     0.84700
O818        O  0.17217206  0.09550432  0.86343052    -0.67500
O819        O  0.13462414  0.13839691  0.70848142    -0.86700
C820        C  0.18110664  0.11275459  0.85586745     0.85500
C821        C  0.13735028  0.11825509  0.91033988     1.07100
H822        H  0.15933469  0.13349206  0.77407264     0.38900
O823        O  0.14489437  0.13253576  0.78101840    -1.09400
O824        O  0.10633235  0.10906154  0.77099534    -0.66000
Ni825      Ni  0.13579840  0.10433123  0.77559593     1.26300
O826        O  0.17200149  0.12745171  0.83938844    -0.66300
O827        O  0.13840100  0.10463857  0.72248668    -0.78600
C828        C  0.14045382  0.06245215  0.78985274     0.84900
O829        O  0.12878913  0.07519261  0.77352562    -0.65700
Ni830      Ni  0.13110528  0.15329366  0.75379258     1.27400
Ni831      Ni  0.14293357  0.13359608  0.83398630     1.26100
H832        H  0.11864305  0.10551899  0.83441493     0.39400
C833        C  0.12864211  0.12446278  0.59372819     0.19000
C834        C  0.12796065  0.14128993  0.56905490    -0.19000
C835        C  0.12517595  0.13810507  0.53101938    -0.11300
C836        C  0.12290439  0.11788490  0.51689325     0.21300
C837        C  0.12292526  0.10111577  0.54180517    -0.20700
C838        C  0.12571772  0.10431049  0.57978524    -0.11500
C839        C  0.12167454  0.11319703  0.47661808    -0.15700
C840        C  0.12380460  0.12727292  0.44907935    -0.29500
C841        C  0.13133707  0.12874164  0.63384842    -0.03800
C842        C  0.13691445  0.11458672  0.65932391    -0.40300
H843        H  0.12979081  0.15700234  0.57922188     0.12400
H844        H  0.12502880  0.15155835  0.51318341     0.12100
H845        H  0.12102868  0.08537786  0.53179742     0.11500
H846        H  0.12531752  0.09094846  0.59792447     0.11800
H847        H  0.12056405  0.09688900  0.46932941     0.14500
H848        H  0.12507337  0.14369373  0.45484087     0.13300
H849        H  0.12827504  0.14440949  0.64282112     0.10900
H850        H  0.14050313  0.09893823  0.65127614     0.13000
C851        C  0.13809406  0.11834297  0.09392832     0.19000
C852        C  0.14520080  0.13385001  0.06940340    -0.19000
C853        C  0.14397863  0.13095550  0.03112383    -0.11300
C854        C  0.13522120  0.11254144  0.01657949     0.21300
C855        C  0.12813177  0.09698612  0.04112608    -0.20700
C856        C  0.12944115  0.09986025  0.07950933    -0.11500
C857        C  0.13443813  0.10846080  0.97618441    -0.15700
C858        C  0.13529214  0.12338882  0.94996249    -0.29500
C859        C  0.13863687  0.12279524  0.13411941    -0.03800
C860        C  0.13883039  0.10829215  0.16108812    -0.40300
H861        H  0.15186825  0.14824754  0.07994639     0.12400
H862        H  0.15027582  0.14302128  0.01323590     0.12100
H863        H  0.12142588  0.08261707  0.03054298     0.11500
H864        H  0.12328080  0.08782884  0.09765288     0.11800
H865        H  0.13345308  0.09231802  0.96779007     0.14500
H866        H  0.13549891  0.13962518  0.95755252     0.13300
H867        H  0.13887813  0.13906859  0.14173119     0.10900
H868        H  0.13958648  0.09197581  0.15429952     0.13000
C869        C  0.22219498  0.10971862  0.42491056     0.19000
C870        C  0.22452721  0.10973305  0.46373744    -0.19000
C871        C  0.24424433  0.11027943  0.48007337    -0.11300
C872        C  0.26205729  0.11035610  0.45778108     0.21300
C873        C  0.25972209  0.11037901  0.41895847    -0.20700
C874        C  0.24001076  0.11029019  0.40262321    -0.11500
C875        C  0.28314977  0.10859686  0.47389191    -0.15700
C876        C  0.28913928  0.11653313  0.50696045    -0.29500
C877        C  0.20106450  0.10728600  0.40878951    -0.03800
C878        C  0.19521277  0.11516018  0.37572981    -0.40300
H879        H  0.21101403  0.10904013  0.48150267     0.12400
H880        H  0.24549481  0.10977474  0.51003727     0.12100
H881        H  0.27322451  0.11018290  0.40119361     0.11500
H882        H  0.23874590  0.10980635  0.37266268     0.11800
H883        H  0.29460359  0.10110140  0.45684308     0.14500
H884        H  0.27866885  0.12583611  0.52299067     0.13300
H885        H  0.18947284  0.09930971  0.42585709     0.10900
H886        H  0.20587159  0.12489301  0.35969353     0.13000
C887        C  0.34918995  0.12796329  0.78843130     0.19000
C888        C  0.35961189  0.14211181  0.81192341    -0.19000
C889        C  0.35982760  0.13911839  0.85035667    -0.11300
C890        C  0.34934356  0.12192598  0.86625189     0.21300
C891        C  0.33863631  0.10794354  0.84276901    -0.20700
C892        C  0.33847009  0.11091536  0.80430689    -0.11500
C893        C  0.34943925  0.11754020  0.90679933    -0.15700
C894        C  0.35617568  0.13081319  0.93340131    -0.29500
C895        C  0.34991940  0.13182204  0.74777582    -0.03800
C896        C  0.34576516  0.11743280  0.72151705    -0.40300
H897        H  0.36794439  0.15542104  0.80041894     0.12400
H898        H  0.36851469  0.15015031  0.86712306     0.12100
H899        H  0.33032039  0.09461540  0.85424470     0.11500
H900        H  0.32978749  0.09993512  0.78738182     0.11800
H901        H  0.34309384  0.10249297  0.91521700     0.14500
H902        H  0.36191457  0.14625759  0.92648780     0.13300
H903        H  0.35516034  0.14721673  0.73909888     0.10900
H904        H  0.34114261  0.10172571  0.72909973     0.13000
C905        C  0.35959556  0.12115764  0.28814398     0.19000
C906        C  0.37036911  0.13521767  0.31140864    -0.19000
C907        C  0.37105410  0.13208304  0.34977481    -0.11300
C908        C  0.36098763  0.11471213  0.36565304     0.21300
C909        C  0.35088518  0.10023612  0.34241956    -0.20700
C910        C  0.35004357  0.10343369  0.30408396    -0.11500
C911        C  0.36063081  0.11103262  0.40619524    -0.15700
C912        C  0.36116510  0.12623718  0.43180627    -0.29500
C913        C  0.35850494  0.12606050  0.24784681    -0.03800
C914        C  0.34884284  0.11428752  0.22181656    -0.40300
H915        H  0.37811843  0.14886166  0.29989672     0.12400
H916        H  0.37951430  0.14319921  0.36682763     0.12100
H917        H  0.34317695  0.08660808  0.35409281     0.11500
H918        H  0.34169117  0.09207212  0.28751774     0.11800
H919        H  0.35789533  0.09510390  0.41512724     0.14500
H920        H  0.36239954  0.14237209  0.42339947     0.13300
H921        H  0.36614090  0.14047219  0.23914746     0.10900
H922        H  0.34136340  0.09958196  0.22874445     0.13000
C923        C  0.22888798  0.11084748  0.92075877     0.19000
C924        C  0.23003882  0.10442831  0.95803968    -0.19000
C925        C  0.24791556  0.10826472  0.97926599    -0.11300
C926        C  0.26533509  0.11842855  0.96355257     0.21300
C927        C  0.26415846  0.12498747  0.92628288    -0.20700
C928        C  0.24617613  0.12122476  0.90503855    -0.11500
C929        C  0.28501598  0.12221723  0.98478794    -0.15700
C930        C  0.29081898  0.11083585  0.01439848    -0.29500
C931        C  0.20943233  0.10599825  0.89969999    -0.03800
C932        C  0.20266276  0.11636412  0.86948596    -0.40300
H933        H  0.21691741  0.09651287  0.97099639     0.12400
H934        H  0.24789017  0.10338489  0.00801206     0.12100
H935        H  0.27735019  0.13278040  0.91334328     0.11500
H936        H  0.24602582  0.12611411  0.87628592     0.11800
H937        H  0.29616516  0.13338301  0.97324248     0.14500
H938        H  0.28094216  0.09811928  0.02416666     0.13300
H939        H  0.19915772  0.09426278  0.91198177     0.10900
H940        H  0.21172037  0.12927964  0.85815250     0.13000
C941        C  0.35939934  0.01234263  0.62825676     0.19000
C942        C  0.37826848  0.00213528  0.62952783    -0.19000
C943        C  0.37862507  0.98057059  0.63324282    -0.11300
C944        C  0.35999644  0.96880846  0.63637735     0.21300
C945        C  0.34118127  0.97921777  0.63634921    -0.20700
C946        C  0.34084727  0.00070805  0.63236084    -0.11500
C947        C  0.35910275  0.94576400  0.63824261    -0.15700
C948        C  0.37566792  0.93352088  0.63982287    -0.29500
C949        C  0.35943995  0.03503603  0.62183949    -0.03800
C950        C  0.34465443  0.04398948  0.60151678    -0.40300
H951        H  0.39276131  0.01082028  0.62653618     0.12400
H952        H  0.39350899  0.97337519  0.63293467     0.12100
H953        H  0.32659470  0.97065341  0.63897859     0.11500
H954        H  0.32605039  0.00817944  0.63250248     0.11800
H955        H  0.34375139  0.93843682  0.63748184     0.14500
H956        H  0.39126487  0.94006119  0.64123813     0.13300
H957        H  0.37279464  0.04426367  0.63108134     0.10900
H958        H  0.33227287  0.03451881  0.58931702     0.13000
C959        C  0.36462892  0.00763799  0.10588595     0.19000
C960        C  0.37636360  0.99334161  0.08636641    -0.19000
C961        C  0.37729955  0.97277804  0.09837221    -0.11300
C962        C  0.36616748  0.96602029  0.12988214     0.21300
C963        C  0.35456971  0.98036592  0.14959202    -0.20700
C964        C  0.35395163  0.00103636  0.13797887    -0.11500
C965        C  0.36445454  0.94375573  0.14008100    -0.15700
C966        C  0.37956379  0.93028432  0.13372728    -0.29500
C967        C  0.36232759  0.02874579  0.09031664    -0.03800
C968        C  0.35961279  0.04555594  0.11147011    -0.40300
H969        H  0.38451295  0.99801803  0.06132430     0.12400
H970        H  0.38590364  0.96200813  0.08188958     0.12100
H971        H  0.34560256  0.97544803  0.17358140     0.11500
H972        H  0.34435278  0.01155470  0.15313138     0.11800
H973        H  0.34996099  0.93818805  0.15229014     0.14500
H974        H  0.39457683  0.93585995  0.12380463     0.13300
H975        H  0.36338379  0.03056675  0.06035733     0.10900
H976        H  0.36029493  0.04428885  0.14152606     0.13000
C977        C  0.38587686  0.87173319  0.88807798     0.19000
C978        C  0.40198955  0.86571328  0.91172791    -0.19000
C979        C  0.39985093  0.86655889  0.95025997    -0.11300
C980        C  0.38142515  0.87347085  0.96603667     0.21300
C981        C  0.36542770  0.87979970  0.94238284    -0.20700
C982        C  0.36756261  0.87893645  0.90382718    -0.11500
C983        C  0.37811943  0.87467157  0.00673631    -0.15700
C984        C  0.38999375  0.86575040  0.03290965    -0.29500
C985        C  0.38932817  0.87076923  0.84740979    -0.03800
C986        C  0.37451005  0.87217149  0.82104803    -0.40300
H987        H  0.41637457  0.86032311  0.90032403     0.12400
H988        H  0.41276567  0.86201271  0.96727196     0.12100
H989        H  0.35113888  0.88541963  0.95379631     0.11500
H990        H  0.35496208  0.88420074  0.88674531     0.11800
H991        H  0.36454697  0.88292961  0.01552199     0.14500
H992        H  0.40346621  0.85704717  0.02550370     0.13300
H993        H  0.40513833  0.86805952  0.83879590     0.10900
H994        H  0.35838853  0.87390278  0.82839368     0.13000
C995        C  0.37919376  0.87978679  0.46437240     0.19000
C996        C  0.36254055  0.88351335  0.44033037    -0.19000
C997        C  0.36555192  0.88512773  0.40206036    -0.11300
C998        C  0.38542073  0.88300789  0.38693798     0.21300
C999        C  0.40215534  0.87975990  0.41107567    -0.20700
C1000       C  0.39914399  0.87817308  0.44935557    -0.11500
C1001       C  0.38953038  0.88317537  0.34641195    -0.15700
C1002       C  0.37485661  0.88236341  0.31967128    -0.29500
C1003       C  0.37489483  0.87828155  0.50474376    -0.03800
C1004       C  0.38835827  0.87187576  0.53079355    -0.40300
H1005       H  0.34703609  0.88507946  0.45119585     0.12400
H1006       H  0.35223047  0.88799331  0.38481095     0.12100
H1007       H  0.41766350  0.87818207  0.40023242     0.11500
H1008       H  0.41252783  0.87582419  0.46675020     0.11800
H1009       H  0.40567280  0.88216531  0.33832085     0.14500
H1010       H  0.35854571  0.88283963  0.32638430     0.13300
H1011       H  0.35951029  0.88263607  0.51341270     0.10900
H1012       H  0.40376096  0.86709637  0.52346872     0.13000
C1013       C  0.38434690  0.74008960  0.82697030     0.19000
C1014       C  0.37524152  0.74258776  0.79174923    -0.19000
C1015       C  0.37856014  0.76089680  0.77123211    -0.11300
C1016       C  0.39103068  0.77715863  0.78573266     0.21300
C1017       C  0.39969184  0.77480149  0.82125665    -0.20700
C1018       C  0.39626624  0.75665152  0.84178127    -0.11500
C1019       C  0.39565258  0.79685429  0.76536068    -0.15700
C1020       C  0.38410132  0.80461179  0.73755745    -0.29500
C1021       C  0.38195151  0.71974977  0.84655712    -0.03800
C1022       C  0.39595474  0.71293933  0.87127440    -0.40300
H1023       H  0.36597626  0.73010491  0.77962325     0.12400
H1024       H  0.37175978  0.76201034  0.74385234     0.12100
H1025       H  0.40914093  0.78715943  0.83336808     0.11500
H1026       H  0.40301671  0.75575067  0.86922029     0.11800
H1027       H  0.40827726  0.80647780  0.77643561     0.14500
H1028       H  0.37048845  0.79613280  0.72752159     0.13300
H1029       H  0.36987489  0.70900267  0.83687231     0.10900
H1030       H  0.40932621  0.72263826  0.87847172     0.13000
C1031       C  0.39220867  0.64590581  0.71932272     0.19000
C1032       C  0.40848677  0.64180617  0.69491631    -0.19000
C1033       C  0.40561679  0.64307482  0.65655747    -0.11300
C1034       C  0.38638027  0.64874798  0.64192945     0.21300
C1035       C  0.37007194  0.65267738  0.66635090    -0.20700
C1036       C  0.37293772  0.65140142  0.70467486    -0.11500
C1037       C  0.38221175  0.64967781  0.60155931    -0.15700
C1038       C  0.39692266  0.65140697  0.57519229    -0.29500
C1039       C  0.39646843  0.64585106  0.75967705    -0.03800
C1040       C  0.38178605  0.64432050  0.78614349    -0.40300
H1041       H  0.42350217  0.63759800  0.70559447     0.12400
H1042       H  0.41838542  0.63930628  0.63868529     0.12100
H1043       H  0.35507732  0.65698299  0.65572010     0.11500
H1044       H  0.36019270  0.65525612  0.72254103     0.11800
H1045       H  0.36602126  0.64880461  0.59323553     0.14500
H1046       H  0.41317615  0.65307712  0.58255162     0.13300
H1047       H  0.41264252  0.64745489  0.76788618     0.10900
H1048       H  0.36562684  0.64157902  0.77893681     0.13000
C1049       C  0.39442768  0.65457215  0.21831710     0.19000
C1050       C  0.41136511  0.65642861  0.19409437    -0.19000
C1051       C  0.40837421  0.65931495  0.15608720    -0.11300
C1052       C  0.38822540  0.66034243  0.14141393     0.21300
C1053       C  0.37129162  0.65869452  0.16571337    -0.20700
C1054       C  0.37428994  0.65586903  0.20373982    -0.11500
C1055       C  0.38385586  0.66222281  0.10112122    -0.15700
C1056       C  0.39809862  0.66073527  0.07406354    -0.29500
C1057       C  0.39873771  0.65261776  0.25857571    -0.03800
C1058       C  0.38436404  0.64856818  0.28484497    -0.40300
H1059       H  0.42705834  0.65574977  0.20465801     0.12400
H1060       H  0.42194622  0.66075648  0.13875316     0.12100
H1061       H  0.35559455  0.65948493  0.15520876     0.11500
H1062       H  0.36076774  0.65504846  0.22130632     0.11800
H1063       H  0.36764415  0.66322376  0.09330235     0.14500
H1064       H  0.41439591  0.65935455  0.08040563     0.13300
H1065       H  0.41475027  0.65527251  0.26708370     0.10900
H1066       H  0.36830381  0.64534125  0.27764638     0.13000
C1067       C  0.38412438  0.74352261  0.34146074     0.19000
C1068       C  0.37192260  0.74741299  0.30995418    -0.19000
C1069       C  0.37443767  0.76594055  0.28984565    -0.11300
C1070       C  0.38915303  0.78115078  0.30111733     0.21300
C1071       C  0.40082942  0.77750472  0.33336886    -0.20700
C1072       C  0.39828893  0.75904625  0.35344703    -0.11500
C1073       C  0.39319990  0.80090897  0.28039498    -0.15700
C1074       C  0.38117476  0.80852960  0.25305562    -0.29500
C1075       C  0.38252658  0.72271521  0.35956446    -0.03800
C1076       C  0.39843309  0.71432747  0.37805253    -0.40300
H1077       H  0.36085512  0.73576646  0.30010740     0.12400
H1078       H  0.36516579  0.76794046  0.26515112     0.12100
H1079       H  0.41210109  0.78899660  0.34307853     0.11500
H1080       H  0.40753746  0.75703645  0.37820409     0.11800
H1081       H  0.40648656  0.81025228  0.28960184     0.14500
H1082       H  0.36722684  0.80022684  0.24419046     0.13300
H1083       H  0.36904456  0.71292773  0.35307278     0.10900
H1084       H  0.41277261  0.72321208  0.38182421     0.13000
C1085       C  0.61441684  0.37195711  0.73937308     0.19000
C1086       C  0.59801316  0.37596851  0.71490589    -0.19000
C1087       C  0.60009533  0.37298791  0.67676034    -0.11300
C1088       C  0.61872739  0.36588084  0.66215426     0.21300
C1089       C  0.63531086  0.36229598  0.68641146    -0.20700
C1090       C  0.63321200  0.36518851  0.72465256    -0.11500
C1091       C  0.62199543  0.36353163  0.62169065    -0.15700
C1092       C  0.60661985  0.36091387  0.59654658    -0.29500
C1093       C  0.61048068  0.37389324  0.77981345    -0.03800
C1094       C  0.62392779  0.36924647  0.80715056    -0.40300
H1095       H  0.58338298  0.38129228  0.72537584     0.12400
H1096       H  0.58721286  0.37665053  0.65889234     0.12100
H1097       H  0.64994706  0.35711848  0.67572323     0.11500
H1098       H  0.64630920  0.36192192  0.74219794     0.11800
H1099       H  0.63796290  0.36426201  0.61220491     0.14500
H1100       H  0.59062730  0.35902541  0.60535592     0.13300
H1101       H  0.59486520  0.37804432  0.78744897     0.10900
H1102       H  0.63973114  0.36523163  0.80111842     0.13000
C1103       C  0.60813897  0.37345267  0.16150610     0.19000
C1104       C  0.62442610  0.37855129  0.18607587    -0.19000
C1105       C  0.62148669  0.37788791  0.22446691    -0.11300
C1106       C  0.60209060  0.37202778  0.23926044     0.21300
C1107       C  0.58561689  0.36751666  0.21478123    -0.20700
C1108       C  0.58855784  0.36814153  0.17632508    -0.11500
C1109       C  0.59825574  0.37060168  0.27984093    -0.15700
C1110       C  0.61319918  0.36822312  0.30567502    -0.29500
C1111       C  0.61269181  0.37358968  0.12101956    -0.03800
C1112       C  0.59942741  0.36748646  0.09389062    -0.40300
H1113       H  0.63962395  0.38293236  0.17552657     0.12400
H1114       H  0.63441016  0.38214503  0.24226046     0.12100
H1115       H  0.57043630  0.36318621  0.22547400     0.11500
H1116       H  0.57545288  0.36435699  0.15870155     0.11800
H1117       H  0.58215580  0.37032069  0.28858694     0.14500
H1118       H  0.62931946  0.36734818  0.29764899     0.13300
H1119       H  0.62835091  0.37840383  0.11324096     0.10900
H1120       H  0.58367421  0.36247052  0.10008928     0.13000
C1121       C  0.45067922  0.13860465  0.63237774     0.19000
C1122       C  0.46647401  0.14929478  0.61286705    -0.19000
C1123       C  0.48703888  0.14902712  0.62544232    -0.11300
C1124       C  0.49203288  0.13853958  0.65842659     0.21300
C1125       C  0.47624315  0.12786008  0.67785088    -0.20700
C1126       C  0.45582503  0.12766686  0.66477826    -0.11500
C1127       C  0.51317661  0.13980384  0.67474734    -0.15700
C1128       C  0.53050682  0.13933689  0.65421707    -0.29500
C1129       C  0.42871504  0.14076549  0.62092699    -0.03800
C1130       C  0.41434969  0.12542182  0.62510485    -0.40300
H1131       H  0.46283336  0.15808678  0.58814771     0.12400
H1132       H  0.49884276  0.15773233  0.61027734     0.12100
H1133       H  0.47969120  0.11984763  0.70350725     0.11500
H1134       H  0.44393106  0.11973850  0.68098853     0.11800
H1135       H  0.51450975  0.14005581  0.70483928     0.14500
H1136       H  0.52937834  0.13707373  0.62439471     0.13300
H1137       H  0.42419192  0.15557198  0.60952521     0.10900
H1138       H  0.41908852  0.11016535  0.63392463     0.13000
C1139       C  0.59204814  0.23304907  0.80109633     0.19000
C1140       C  0.59186828  0.23557845  0.83992108    -0.19000
C1141       C  0.59278438  0.25537712  0.85599545    -0.11300
C1142       C  0.59344561  0.27322361  0.83352603     0.21300
C1143       C  0.59350458  0.27068716  0.79469338    -0.20700
C1144       C  0.59303938  0.25087816  0.77863108    -0.11500
C1145       C  0.59277292  0.29462678  0.84929203    -0.15700
C1146       C  0.60043097  0.30033365  0.88288589    -0.29500
C1147       C  0.58983832  0.21169793  0.78526015    -0.03800
C1148       C  0.59802945  0.20559004  0.75262328    -0.40300
H1149       H  0.59089874  0.22213270  0.85794787     0.12400
H1150       H  0.59227696  0.25665933  0.88592864     0.12100
H1151       H  0.59379406  0.28413651  0.77664358     0.11500
H1152       H  0.59277014  0.24956864  0.74868090     0.11800
H1153       H  0.58670510  0.30658630  0.83130874     0.14500
H1154       H  0.60837605  0.28916906  0.89997457     0.13300
H1155       H  0.58219458  0.20002706  0.80265262     0.10900
H1156       H  0.60755505  0.21636087  0.73643305     0.13000
C1157       C  0.48923924  0.15188067  0.15932197     0.19000
C1158       C  0.47739256  0.16964096  0.16300898    -0.19000
C1159       C  0.45652560  0.16942866  0.15238653    -0.11300
C1160       C  0.44682864  0.15134781  0.13836416     0.21300
C1161       C  0.45879985  0.13358099  0.13415878    -0.20700
C1162       C  0.47971087  0.13382942  0.14466952    -0.11500
C1163       C  0.42424125  0.15171873  0.12927170    -0.15700
C1164       C  0.41207479  0.13460195  0.12478847    -0.29500
C1165       C  0.51106957  0.15249067  0.17286186    -0.03800
C1166       C  0.52580122  0.13984549  0.16051096    -0.40300
H1167       H  0.48429551  0.18374249  0.17431919     0.12400
H1168       H  0.44781138  0.18337890  0.15583883     0.12100
H1169       H  0.45224245  0.11939776  0.12280323     0.11500
H1170       H  0.48817144  0.11969313  0.14208658     0.11800
H1171       H  0.41706936  0.16673899  0.12856157     0.14500
H1172       H  0.41856654  0.11936568  0.12700427     0.13300
H1173       H  0.51525458  0.16417851  0.19339568     0.10900
H1174       H  0.52229968  0.12886002  0.13849996     0.13000
C1175       C  0.60263837  0.13931834  0.90366309     0.19000
C1176       C  0.58827107  0.14781632  0.92803944    -0.19000
C1177       C  0.59175004  0.14785197  0.96634265    -0.11300
C1178       C  0.60964781  0.13904937  0.98129453     0.21300
C1179       C  0.62412582  0.13069787  0.95685673    -0.20700
C1180       C  0.62067165  0.13073679  0.91847330    -0.11500
C1181       C  0.61401008  0.13848418  0.02190881    -0.15700
C1182       C  0.59969823  0.14143605  0.04846233    -0.29500
C1183       C  0.59786185  0.13936681  0.86326616    -0.03800
C1184       C  0.61217830  0.13797007  0.83632111    -0.40300
H1185       H  0.57431104  0.15463382  0.91735413     0.12400
H1186       H  0.58044431  0.15502196  0.98381138     0.12100
H1187       H  0.63807521  0.12386312  0.96754563     0.11500
H1188       H  0.63194411  0.12366593  0.90074759     0.11800
H1189       H  0.62967430  0.13482690  0.03028527     0.14500
H1190       H  0.58374264  0.14427326  0.04112626     0.13300
H1191       H  0.58186510  0.14187435  0.85536906     0.10900
H1192       H  0.62846396  0.13690827  0.84330032     0.13000
C1193       C  0.62107003  0.14050188  0.47902710     0.19000
C1194       C  0.60202792  0.14005462  0.46002981    -0.19000
C1195       C  0.60152374  0.14060621  0.42120724    -0.11300
C1196       C  0.62002394  0.14140345  0.40046658     0.21300
C1197       C  0.63897006  0.14215192  0.41944063    -0.20700
C1198       C  0.63948708  0.14148884  0.45824615    -0.11500
C1199       C  0.61983196  0.14221678  0.35917783    -0.15700
C1200       C  0.60456064  0.13300688  0.33941330    -0.29500
C1201       C  0.62270208  0.13947135  0.52019805    -0.03800
C1202       C  0.60709334  0.14249000  0.54439818    -0.40300
H1203       H  0.58748357  0.13907832  0.47477805     0.12400
H1204       H  0.58657815  0.14072188  0.40757338     0.12100
H1205       H  0.65340531  0.14299189  0.40419319     0.11500
H1206       H  0.65439659  0.14182649  0.47212009     0.11800
H1207       H  0.63212538  0.15088743  0.34499201     0.14500
H1208       H  0.59261341  0.12395675  0.35376140     0.13300
H1209       H  0.63800306  0.13637728  0.53117675     0.10900
H1210       H  0.59170216  0.14609992  0.53471422     0.13000
C1211       C  0.59083109  0.27013228  0.33963415     0.19000
C1212       C  0.58858999  0.26760443  0.30104382    -0.19000
C1213       C  0.58813281  0.24785112  0.28506306    -0.11300
C1214       C  0.58941504  0.23013010  0.30753061     0.21300
C1215       C  0.59147009  0.23262316  0.34616590    -0.20700
C1216       C  0.59243706  0.25241917  0.36208028    -0.11500
C1217       C  0.58723670  0.20888299  0.29190075    -0.15700
C1218       C  0.59468987  0.20326797  0.25852041    -0.29500
C1219       C  0.58986003  0.29134334  0.35545307    -0.03800
C1220       C  0.59983339  0.29783377  0.38652716    -0.40300
H1221       H  0.58705046  0.28100228  0.28318249     0.12400
H1222       H  0.58606331  0.24644087  0.25533129     0.12100
H1223       H  0.59223319  0.21917480  0.36411301     0.11500
H1224       H  0.59369951  0.25379895  0.39194952     0.11800
H1225       H  0.58029466  0.19700246  0.30975011     0.14500
H1226       H  0.60357467  0.21433679  0.24181261     0.13300
H1227       H  0.58137210  0.30257341  0.33930870     0.10900
H1228       H  0.60997738  0.28751763  0.40136303     0.13000
C1229       C  0.86593904  0.88624168  0.60241033     0.19000
C1230       C  0.86393676  0.86950319  0.57784266    -0.19000
C1231       C  0.86457461  0.87266951  0.53950049    -0.11300
C1232       C  0.86747454  0.89276370  0.52487237     0.21300
C1233       C  0.86977908  0.90947085  0.54952610    -0.20700
C1234       C  0.86910080  0.90629677  0.58786572    -0.11500
C1235       C  0.86700846  0.89733387  0.48445234    -0.15700
C1236       C  0.86647371  0.88295397  0.45739533    -0.29500
C1237       C  0.86532528  0.88192811  0.64284097    -0.03800
C1238       C  0.86149781  0.89622737  0.66886741    -0.40300
H1239       H  0.86159913  0.85388533  0.58837092     0.12400
H1240       H  0.86239393  0.85932103  0.52182879     0.12100
H1241       H  0.87204719  0.92511367  0.53907527     0.11500
H1242       H  0.87134583  0.91956521  0.60577590     0.11800
H1243       H  0.86625285  0.91356984  0.47668365     0.14500
H1244       H  0.86748579  0.86661901  0.46374269     0.13300
H1245       H  0.86774691  0.86603355  0.65144976     0.10900
H1246       H  0.85814838  0.91201890  0.66110796     0.13000
C1247       C  0.86239400  0.89718289  0.02520268     0.19000
C1248       C  0.85499759  0.91227781  0.04931093    -0.19000
C1249       C  0.85414409  0.90866706  0.08751811    -0.11300
C1250       C  0.86098440  0.88986787  0.10241143     0.21300
C1251       C  0.86872567  0.87495313  0.07821609    -0.20700
C1252       C  0.86949797  0.87854891  0.04003825    -0.11500
C1253       C  0.86046685  0.88491302  0.14266425    -0.15700
C1254       C  0.85495385  0.89804824  0.16962736    -0.29500
C1255       C  0.86255569  0.90155681  0.98488513    -0.03800
C1256       C  0.86149598  0.88672942  0.95868997    -0.40300
H1257       H  0.84954033  0.92681663  0.03846413     0.12400
H1258       H  0.84797987  0.92062876  0.10480289     0.12100
H1259       H  0.87427872  0.86041976  0.08890475     0.11500
H1260       H  0.87589512  0.86681917  0.02241526     0.11800
H1261       H  0.86522663  0.86949507  0.15054531     0.14500
H1262       H  0.85020467  0.91361312  0.16333840     0.13300
H1263       H  0.86210535  0.91772904  0.97656923     0.10900
H1264       H  0.86063412  0.87048002  0.96639494     0.13000
C1265       C  0.62899829  0.04180838  0.63771715     0.19000
C1266       C  0.64696004  0.03177980  0.62645030    -0.19000
C1267       C  0.64657335  0.01052861  0.61896438    -0.11300
C1268       C  0.62811583  0.99860606  0.62253886     0.21300
C1269       C  0.61026551  0.00842927  0.63489052    -0.20700
C1270       C  0.61061852  0.02977720  0.64225891    -0.11500
C1271       C  0.62715434  0.97594171  0.61415867    -0.15700
C1272       C  0.63969364  0.96721098  0.58914916    -0.29500
C1273       C  0.63044267  0.06470369  0.64410825    -0.03800
C1274       C  0.61416754  0.07712061  0.64895043    -0.40300
H1275       H  0.66142726  0.04047373  0.62315346     0.12400
H1276       H  0.66086286  0.00348552  0.61082961     0.12100
H1277       H  0.59590080  0.99959326  0.63839322     0.11500
H1278       H  0.59648220  0.03660482  0.65161236     0.11800
H1279       H  0.61516204  0.96642557  0.62745097     0.14500
H1280       H  0.65067240  0.97690992  0.57376089     0.13300
H1281       H  0.64585526  0.07187198  0.64305862     0.10900
H1282       H  0.59850273  0.07067964  0.64926695     0.13000
C1283       C  0.49693920  0.86330482  0.65841889     0.19000
C1284       C  0.50966253  0.84674061  0.66713818    -0.19000
C1285       C  0.53081495  0.84776681  0.65924111    -0.11300
C1286       C  0.53997478  0.86550364  0.64282755     0.21300
C1287       C  0.52728762  0.88231711  0.63439895    -0.20700
C1288       C  0.50598216  0.88121800  0.64213834    -0.11500
C1289       C  0.56267501  0.86534904  0.63512565    -0.15700
C1290       C  0.57438456  0.88164358  0.62308258    -0.29500
C1291       C  0.47457845  0.86138888  0.66816663    -0.03800
C1292       C  0.45948919  0.87202743  0.65146657    -0.40300
H1293       H  0.50317190  0.83282429  0.67993506     0.12400
H1294       H  0.54009770  0.83457626  0.66616486     0.12100
H1295       H  0.53356136  0.89630524  0.62175189     0.11500
H1296       H  0.49676825  0.89452486  0.63589757     0.11800
H1297       H  0.57030402  0.85085387  0.64054751     0.14500
H1298       H  0.56758736  0.89654276  0.61809180     0.13300
H1299       H  0.47028820  0.85006356  0.68937208     0.10900
H1300       H  0.46320310  0.88281043  0.62914248     0.13000
C1301       C  0.72627896  0.90087498  0.45439719     0.19000
C1302       C  0.74346667  0.90546402  0.47717165    -0.19000
C1303       C  0.76340053  0.90697129  0.46194669    -0.11300
C1304       C  0.76664187  0.90348224  0.42390230     0.21300
C1305       C  0.74946356  0.89840821  0.40131176    -0.20700
C1306       C  0.72948440  0.89735162  0.41639682    -0.11500
C1307       C  0.78793170  0.90637982  0.40856273    -0.15700
C1308       C  0.79499454  0.89629620  0.37859661    -0.29500
C1309       C  0.70475047  0.90160290  0.46864695    -0.03800
C1310       C  0.69889316  0.89511123  0.50275286    -0.40300
H1311       H  0.74142586  0.90869922  0.50639137     0.12400
H1312       H  0.77634544  0.91106223  0.47991304     0.12100
H1313       H  0.75129969  0.89601909  0.37179478     0.11500
H1314       H  0.71642580  0.89401789  0.39822919     0.11800
H1315       H  0.79870703  0.91626181  0.42414000     0.14500
H1316       H  0.78516300  0.88481965  0.36469428     0.13300
H1317       H  0.69297459  0.90695426  0.44951093     0.10900
H1318       H  0.70987367  0.88772195  0.52105119     0.13000
C1319       C  0.62648071  0.04096864  0.14211618     0.19000
C1320       C  0.64489627  0.03158731  0.13135641    -0.19000
C1321       C  0.64530961  0.01037509  0.12376805    -0.11300
C1322       C  0.62721225  0.99784261  0.12668374     0.21300
C1323       C  0.60893583  0.00701486  0.13876852    -0.20700
C1324       C  0.60849553  0.02832342  0.14628047    -0.11500
C1325       C  0.62695461  0.97524503  0.11764769    -0.15700
C1326       C  0.64035679  0.96686599  0.09367388    -0.29500
C1327       C  0.62705511  0.06388577  0.14819088    -0.03800
C1328       C  0.61033650  0.07579938  0.15241306    -0.40300
H1329       H  0.65908977  0.04077521  0.12842021     0.12400
H1330       H  0.65992051  0.00388526  0.11595968     0.12100
H1331       H  0.59483295  0.99770705  0.14184384     0.11500
H1332       H  0.59405485  0.03466394  0.15530332     0.11800
H1333       H  0.61467086  0.96545867  0.12940809     0.14500
H1334       H  0.65177354  0.97674435  0.07973665     0.13300
H1335       H  0.64225143  0.07153054  0.14733458     0.10900
H1336       H  0.59485998  0.06889088  0.15273399     0.13000
C1337       C  0.53507941  0.86874313  0.11175951     0.19000
C1338       C  0.52396831  0.85187797  0.12721204    -0.19000
C1339       C  0.50257453  0.85254055  0.13215327    -0.11300
C1340       C  0.49164176  0.87022477  0.12186997     0.21300
C1341       C  0.50257427  0.88678743  0.10486656    -0.20700
C1342       C  0.52410300  0.88613514  0.09995031    -0.11500
C1343       C  0.46895985  0.87173867  0.12873365    -0.15700
C1344       C  0.45940566  0.86127309  0.15649647    -0.29500
C1345       C  0.55796284  0.86718443  0.10842895    -0.03800
C1346       C  0.57132625  0.88348117  0.10508683    -0.40300
H1347       H  0.53192649  0.83813339  0.13594212     0.12400
H1348       H  0.49470252  0.83904358  0.14380691     0.12100
H1349       H  0.49449388  0.90042422  0.09599195     0.11500
H1350       H  0.53197599  0.89918576  0.08679229     0.11800
H1351       H  0.46020143  0.88245558  0.11197201     0.14500
H1352       H  0.46834200  0.85160860  0.17488466     0.13300
H1353       H  0.56419692  0.85180091  0.11127457     0.10900
H1354       H  0.56567070  0.89911608  0.10365109     0.13000
C1355       C  0.64100277  0.88683103  0.78112314     0.19000
C1356       C  0.64542862  0.87095289  0.80631098    -0.19000
C1357       C  0.64249596  0.87366378  0.84427467    -0.11300
C1358       C  0.63474962  0.89231523  0.85775450     0.21300
C1359       C  0.63036972  0.90822359  0.83253739    -0.20700
C1360       C  0.63335479  0.90552088  0.79453193    -0.11500
C1361       C  0.63248416  0.89644264  0.89788003    -0.15700
C1362       C  0.63234180  0.88172792  0.92445964    -0.29500
C1363       C  0.64282810  0.88247286  0.74109000    -0.03800
C1364       C  0.64366494  0.89700919  0.71419425    -0.40300
H1365       H  0.65122233  0.85636306  0.79655582     0.12400
H1366       H  0.64671681  0.86124296  0.86272088     0.12100
H1367       H  0.62451260  0.92278598  0.84228125     0.11500
H1368       H  0.62917568  0.91788532  0.77589361     0.11800
H1369       H  0.63177349  0.91261135  0.90591628     0.14500
H1370       H  0.63254626  0.86543314  0.91744375     0.13300
H1371       H  0.64276634  0.86620735  0.73343111     0.10900
H1372       H  0.64475031  0.91336070  0.72089132     0.13000
C1373       C  0.63105700  0.88240232  0.28053868     0.19000
C1374       C  0.63084782  0.86526362  0.30468103    -0.19000
C1375       C  0.62986415  0.86796281  0.34313285    -0.11300
C1376       C  0.62893880  0.88798217  0.35814900     0.21300
C1377       C  0.62900967  0.90505165  0.33392288    -0.20700
C1378       C  0.62997301  0.90235792  0.29561659    -0.11500
C1379       C  0.62864984  0.89225955  0.39856949    -0.15700
C1380       C  0.62824609  0.87795553  0.42593634    -0.29500
C1381       C  0.63146491  0.87866394  0.23996064    -0.03800
C1382       C  0.63557024  0.89335550  0.21407744    -0.40300
H1383       H  0.63151235  0.84969373  0.29374048     0.12400
H1384       H  0.62998555  0.85435216  0.36061193     0.12100
H1385       H  0.62828226  0.92065585  0.34468575     0.11500
H1386       H  0.62949442  0.91598194  0.27820853     0.11800
H1387       H  0.62971162  0.90851938  0.40620149     0.14500
H1388       H  0.62746329  0.86153510  0.41992417     0.13300
H1389       H  0.62822155  0.86284602  0.23103351     0.10900
H1390       H  0.63969948  0.90912137  0.22186862     0.13000
C1391       C  0.76745619  0.90454714  0.92310682     0.19000
C1392       C  0.76518027  0.90348051  0.96191810    -0.19000
C1393       C  0.74548712  0.90230905  0.97823178    -0.11300
C1394       C  0.72760999  0.90264048  0.95598320     0.21300
C1395       C  0.72988836  0.90366812  0.91716767    -0.20700
C1396       C  0.74957478  0.90437800  0.90082389    -0.11500
C1397       C  0.70646977  0.90380179  0.97210713    -0.15700
C1398       C  0.70037119  0.89521946  0.00474328    -0.29500
C1399       C  0.78862384  0.90727576  0.90719180    -0.03800
C1400       C  0.79448977  0.90004130  0.87379227    -0.40300
H1401       H  0.77872958  0.90377482  0.97972616     0.12400
H1402       H  0.74429745  0.90198218  0.00820035     0.12100
H1403       H  0.71634405  0.90418640  0.89941064     0.11500
H1404       H  0.75075895  0.90559500  0.87091863     0.11800
H1405       H  0.69497699  0.91143126  0.95514379     0.14500
H1406       H  0.71087242  0.88581367  0.02071317     0.13300
H1407       H  0.80037368  0.91442666  0.92505360     0.10900
H1408       H  0.78369586  0.89090969  0.85696412     0.13000
C1409       C  0.83719731  0.73155550  0.82664952     0.19000
C1410       C  0.84291490  0.74002921  0.79207013    -0.19000
C1411       C  0.84466556  0.76151589  0.78736137    -0.11300
C1412       C  0.84083371  0.77504534  0.81694766     0.21300
C1413       C  0.83420241  0.76656996  0.85103325    -0.20700
C1414       C  0.83244533  0.74508646  0.85572749    -0.11500
C1415       C  0.84570788  0.79753068  0.81156124    -0.15700
C1416       C  0.84190323  0.81276328  0.83607642    -0.29500
C1417       C  0.83856118  0.70908743  0.83524565    -0.03800
C1418       C  0.84049323  0.69375980  0.81009697    -0.40300
H1419       H  0.84705899  0.73024775  0.76911674     0.12400
H1420       H  0.84982292  0.76757669  0.76076488     0.12100
H1421       H  0.83118147  0.77627277  0.87466712     0.11500
H1422       H  0.82810861  0.73899063  0.88275418     0.11800
H1423       H  0.85340844  0.80175707  0.78570357     0.14500
H1424       H  0.83327657  0.80969713  0.86135167     0.13300
H1425       H  0.83911110  0.70509650  0.86457646     0.10900
H1426       H  0.83886223  0.69675068  0.78060683     0.13000
C1427       C  0.84083708  0.77202496  0.31801595     0.19000
C1428       C  0.84192219  0.75871107  0.28726748    -0.19000
C1429       C  0.84082105  0.73719136  0.29170479    -0.11300
C1430       C  0.83853111  0.72841598  0.32722167     0.21300
C1431       C  0.83663087  0.74173981  0.35783876    -0.20700
C1432       C  0.83779265  0.76328260  0.35340693    -0.11500
C1433       C  0.83994957  0.70577818  0.33451353    -0.15700
C1434       C  0.84197444  0.69069898  0.30875655    -0.29500
C1435       C  0.84439159  0.79462972  0.31154215    -0.03800
C1436       C  0.84312782  0.80988154  0.33707699    -0.40300
H1437       H  0.84424554  0.76498579  0.25961111     0.12400
H1438       H  0.84246191  0.72765937  0.26736250     0.12100
H1439       H  0.83490168  0.73544593  0.38561371     0.11500
H1440       H  0.83695211  0.77284483  0.37788496     0.11800
H1441       H  0.84050585  0.70140394  0.36366409     0.14500
H1442       H  0.84067624  0.69395235  0.27932669     0.13300
H1443       H  0.84875396  0.79895325  0.28337540     0.10900
H1444       H  0.83793412  0.80667378  0.36514991     0.13000
C1445       C  0.86854790  0.61078407  0.62219090     0.19000
C1446       C  0.86763671  0.59330742  0.59899041    -0.19000
C1447       C  0.86656643  0.59545422  0.56041365    -0.11300
C1448       C  0.86636456  0.61524455  0.54419106     0.21300
C1449       C  0.86760332  0.63270128  0.56731606    -0.20700
C1450       C  0.86865724  0.63056771  0.60584391    -0.11500
C1451       C  0.86562517  0.61868540  0.50348267    -0.15700
C1452       C  0.86048376  0.60424243  0.47779609    -0.29500
C1453       C  0.86883980  0.60738221  0.66300986    -0.03800
C1454       C  0.86766982  0.62231240  0.68906699    -0.40300
H1455       H  0.86765013  0.57785569  0.61077587     0.12400
H1456       H  0.86615449  0.58160435  0.54365151     0.12100
H1457       H  0.86768007  0.64814915  0.55550155     0.11500
H1458       H  0.86954536  0.64449606  0.62230850     0.11800
H1459       H  0.86919050  0.63441266  0.49423417     0.14500
H1460       H  0.85612909  0.58852482  0.48574667     0.13300
H1461       H  0.86902160  0.59131764  0.67203173     0.10900
H1462       H  0.86717813  0.63853012  0.68155037     0.13000
C1463       C  0.87191571  0.61556264  0.04454864     0.19000
C1464       C  0.87651190  0.63195576  0.06900935    -0.19000
C1465       C  0.87607772  0.62890924  0.10741766    -0.11300
C1466       C  0.87097470  0.60927437  0.12225386     0.21300
C1467       C  0.86703311  0.59273990  0.09780121    -0.20700
C1468       C  0.86750065  0.59577231  0.05941956    -0.11500
C1469       C  0.86942795  0.60511298  0.16273148    -0.15700
C1470       C  0.86914441  0.61973228  0.18937125    -0.29500
C1471       C  0.87165328  0.62008756  0.00406289    -0.03800
C1472       C  0.86482504  0.60679973  0.97766400    -0.40300
H1473       H  0.88022811  0.64731352  0.05836340     0.12400
H1474       H  0.87976649  0.64200002  0.12503505     0.12100
H1475       H  0.86330949  0.57738092  0.10844416     0.11500
H1476       H  0.86433488  0.58252233  0.04191729     0.11800
H1477       H  0.86754702  0.58895429  0.17086562     0.14500
H1478       H  0.87055656  0.63605121  0.18255424     0.13300
H1479       H  0.87668109  0.63560514  0.99570019     0.10900
H1480       H  0.85946781  0.59123775  0.98456750     0.13000
C1481       C  0.64679662  0.77258955  0.58542969     0.19000
C1482       C  0.64762768  0.76160284  0.55190831    -0.19000
C1483       C  0.64790493  0.73997575  0.55214554    -0.11300
C1484       C  0.64753171  0.72881052  0.58571058     0.21300
C1485       C  0.64751736  0.73976440  0.61930400    -0.20700
C1486       C  0.64706593  0.76143901  0.61907870    -0.11500
C1487       C  0.64456938  0.70596714  0.58397474    -0.15700
C1488       C  0.64914059  0.69233787  0.61114046    -0.29500
C1489       C  0.64350982  0.79528896  0.58659200    -0.03800
C1490       C  0.64692335  0.80864825  0.55814229    -0.40300
H1491       H  0.64702905  0.76948610  0.52541887     0.12400
H1492       H  0.64771221  0.73187353  0.52584914     0.12100
H1493       H  0.64678909  0.73166607  0.64563456     0.11500
H1494       H  0.64626003  0.76950944  0.64533221     0.11800
H1495       H  0.63809652  0.69996502  0.55812139     0.14500
H1496       H  0.65709021  0.69731016  0.63628715     0.13300
H1497       H  0.63775580  0.80134645  0.61262412     0.10900
H1498       H  0.65406810  0.80366365  0.53259274     0.13000
C1499       C  0.63212874  0.46097609  0.50600608     0.19000
C1500       C  0.64472769  0.47592109  0.48794877    -0.19000
C1501       C  0.64602629  0.49634600  0.50091786    -0.11300
C1502       C  0.63516001  0.50204887  0.53288614     0.21300
C1503       C  0.62255202  0.48712820  0.55093205    -0.20700
C1504       C  0.62082758  0.46685640  0.53740910    -0.11500
C1505       C  0.63790129  0.52294639  0.54953293    -0.15700
C1506       C  0.63960383  0.54040811  0.52919709    -0.29500
C1507       C  0.63285211  0.43895410  0.49430091    -0.03800
C1508       C  0.61656568  0.42555572  0.49713150    -0.40300
H1509       H  0.65383739  0.47168350  0.46408079     0.12400
H1510       H  0.65619297  0.50742577  0.48688827     0.12100
H1511       H  0.61420560  0.49112340  0.57583868     0.11500
H1512       H  0.61142162  0.45558663  0.55256766     0.11800
H1513       H  0.63734749  0.52410677  0.57962515     0.14500
H1514       H  0.63802147  0.53973458  0.49918899     0.13300
H1515       H  0.64748347  0.43351889  0.48377646     0.10900
H1516       H  0.60153735  0.43116591  0.50522583     0.13000
C1517       C  0.49897812  0.63653297  0.49748431     0.19000
C1518       C  0.50916109  0.61815467  0.50568109    -0.19000
C1519       C  0.53030123  0.61855735  0.51489484    -0.11300
C1520       C  0.54167903  0.63749855  0.51656071     0.21300
C1521       C  0.53116027  0.65589972  0.50983722    -0.20700
C1522       C  0.51013252  0.65546370  0.50045412    -0.11500
C1523       C  0.56445440  0.63909367  0.52417908    -0.15700
C1524       C  0.57701132  0.62292012  0.52902563    -0.29500
C1525       C  0.47685167  0.63568418  0.48548800    -0.03800
C1526       C  0.46956126  0.64912565  0.46034474    -0.40300
H1527       H  0.50086232  0.60338584  0.50399267     0.12400
H1528       H  0.53750250  0.60396178  0.52023638     0.12100
H1529       H  0.53932122  0.67075270  0.51135810     0.11500
H1530       H  0.50263484  0.67000561  0.49556804     0.11800
H1531       H  0.57139235  0.65461316  0.52468674     0.14500
H1532       H  0.57082599  0.60717512  0.52873105     0.13300
H1533       H  0.46681549  0.62313747  0.49561428     0.10900
H1534       H  0.48014186  0.66057416  0.44810064     0.13000
C1535       C  0.77175288  0.59694688  0.71913187     0.19000
C1536       C  0.75405846  0.59331656  0.74104566    -0.19000
C1537       C  0.73429660  0.59267569  0.72475045    -0.11300
C1538       C  0.73171836  0.59617119  0.68645032     0.21300
C1539       C  0.74940695  0.60018257  0.66465735    -0.20700
C1540       C  0.76920797  0.60029684  0.68080455    -0.11500
C1541       C  0.71053950  0.59420982  0.66997419    -0.15700
C1542       C  0.70401074  0.60508983  0.64024948    -0.29500
C1543       C  0.79306281  0.59592263  0.73485396    -0.03800
C1544       C  0.79854820  0.60306109  0.76875741    -0.40300
H1545       H  0.75553108  0.59026839  0.77049948     0.12400
H1546       H  0.72094284  0.58933854  0.74212334     0.12100
H1547       H  0.74802888  0.60251802  0.63499042     0.11500
H1548       H  0.78262781  0.60292052  0.66325529     0.11800
H1549       H  0.69935934  0.58428798  0.68456192     0.14500
H1550       H  0.71421955  0.61667031  0.62746087     0.13300
H1551       H  0.80510326  0.59034900  0.71667273     0.10900
H1552       H  0.78732876  0.61083421  0.78581510     0.13000
C1553       C  0.64653290  0.77245136  0.08141056     0.19000
C1554       C  0.64639414  0.76153184  0.11534110    -0.19000
C1555       C  0.64698918  0.73984125  0.11623800    -0.11300
C1556       C  0.64751918  0.72853806  0.08302649     0.21300
C1557       C  0.64847888  0.73950182  0.04918573    -0.20700
C1558       C  0.64807601  0.76118296  0.04830294    -0.11500
C1559       C  0.64451248  0.70556686  0.08183583    -0.15700
C1560       C  0.64754882  0.69215711  0.11019753    -0.29500
C1561       C  0.64274645  0.79514263  0.08185959    -0.03800
C1562       C  0.64694405  0.80871878  0.05393915    -0.40300
H1563       H  0.64510331  0.76980093  0.14131391     0.12400
H1564       H  0.64591663  0.73201228  0.14278809     0.12100
H1565       H  0.64877195  0.73119455  0.02312024     0.11500
H1566       H  0.64788378  0.76891616  0.02162750     0.11800
H1567       H  0.63916699  0.69925269  0.05542942     0.14500
H1568       H  0.65439616  0.69733458  0.13620968     0.13300
H1569       H  0.63596939  0.80105435  0.10717691     0.10900
H1570       H  0.65510261  0.80392169  0.02926677     0.13000
C1571       C  0.62403700  0.46015951  0.00931500     0.19000
C1572       C  0.61007789  0.47640360  0.00697234    -0.19000
C1573       C  0.61617309  0.49661846  0.01736578    -0.11300
C1574       C  0.63632067  0.50094151  0.03098423     0.21300
C1575       C  0.65005673  0.48459800  0.03418049    -0.20700
C1576       C  0.64408593  0.46452023  0.02331431    -0.11500
C1577       C  0.64308000  0.52194146  0.04426136    -0.15700
C1578       C  0.63564633  0.53959806  0.03019032    -0.29500
C1579       C  0.61712154  0.43852635  0.99978970    -0.03800
C1580       C  0.63045661  0.42460312  0.98690280    -0.40300
H1581       H  0.59441401  0.47343386  0.99715035     0.12400
H1582       H  0.60490217  0.50867358  0.01571802     0.12100
H1583       H  0.66549074  0.48736382  0.04527467     0.11500
H1584       H  0.65504715  0.45231447  0.02704881     0.11800
H1585       H  0.65471192  0.52284737  0.06610025     0.14500
H1586       H  0.62467907  0.53883605  0.00730304     0.13300
H1587       H  0.60114372  0.43377819  0.00521318     0.10900
H1588       H  0.64621438  0.42973222  0.98056185     0.13000
C1589       C  0.49908455  0.63599242  0.99262390     0.19000
C1590       C  0.50877903  0.61776599  0.00373194    -0.19000
C1591       C  0.53011981  0.61787072  0.01162316    -0.11300
C1592       C  0.54216202  0.63638209  0.00898827     0.21300
C1593       C  0.53222956  0.65462396  0.99885399    -0.20700
C1594       C  0.51104548  0.65449882  0.99099838    -0.11500
C1595       C  0.56498983  0.63783282  0.01605534    -0.15700
C1596       C  0.57698621  0.62214036  0.02696295    -0.29500
C1597       C  0.47661003  0.63550101  0.98257668    -0.03800
C1598       C  0.46905221  0.64837870  0.95668242    -0.40300
H1599       H  0.49990597  0.60332519  0.00553873     0.12400
H1600       H  0.53696367  0.60341425  0.01938778     0.12100
H1601       H  0.54093019  0.66916652  0.99693278     0.11500
H1602       H  0.50407083  0.66903037  0.98390904     0.11800
H1603       H  0.57243071  0.65293384  0.01164075     0.14500
H1604       H  0.57034301  0.60676280  0.03150149     0.13300
H1605       H  0.46643510  0.62378097  0.99509700     0.10900
H1606       H  0.47964801  0.65892598  0.94219050     0.13000
C1607       C  0.64128763  0.61854053  0.78800114     0.19000
C1608       C  0.65667541  0.62860640  0.80956198    -0.19000
C1609       C  0.65709416  0.62629078  0.84835010    -0.11300
C1610       C  0.64195008  0.61393409  0.86671323     0.21300
C1611       C  0.62655073  0.60393079  0.84520134    -0.20700
C1612       C  0.62605321  0.60633917  0.80648867    -0.11500
C1613       C  0.64144834  0.61143945  0.90809657    -0.15700
C1614       C  0.64840025  0.62636360  0.93137213    -0.29500
C1615       C  0.64191484  0.62073167  0.74649601    -0.03800
C1616       C  0.63334038  0.60650817  0.72337068    -0.40300
H1617       H  0.66865816  0.63804212  0.79627622     0.12400
H1618       H  0.66948526  0.63395333  0.86374230     0.12100
H1619       H  0.61458482  0.59447930  0.85849897     0.11500
H1620       H  0.61352689  0.59876758  0.79135736     0.11800
H1621       H  0.63321746  0.59801281  0.91963657     0.14500
H1622       H  0.65484953  0.64066792  0.91979637     0.13300
H1623       H  0.65133363  0.63329268  0.73469104     0.10900
H1624       H  0.62547397  0.59293293  0.73496623     0.13000
C1625       C  0.64255023  0.61633843  0.28812590     0.19000
C1626       C  0.65609620  0.62872832  0.30977980    -0.19000
C1627       C  0.65659195  0.62677037  0.34861773    -0.11300
C1628       C  0.64333363  0.61243626  0.36708199     0.21300
C1629       C  0.62995189  0.59987140  0.34546484    -0.20700
C1630       C  0.62939231  0.60187913  0.30662284    -0.11500
C1631       C  0.64277414  0.61046418  0.40863315    -0.15700
C1632       C  0.64755351  0.62643884  0.43139529    -0.29500
C1633       C  0.64281476  0.61885489  0.24659134    -0.03800
C1634       C  0.63593143  0.60400956  0.22301342    -0.40300
H1635       H  0.66653771  0.63987527  0.29654077     0.12400
H1636       H  0.66756323  0.63638427  0.36397842     0.12100
H1637       H  0.61952305  0.58873411  0.35876405     0.11500
H1638       H  0.61833917  0.59228141  0.29146495     0.11800
H1639       H  0.63648358  0.59618355  0.42063960     0.14500
H1640       H  0.65207627  0.64127982  0.41926977     0.13300
H1641       H  0.65049839  0.63259290  0.23505235     0.10900
H1642       H  0.62986559  0.58947428  0.23418993     0.13000
C1643       C  0.77150520  0.60696345  0.22232419     0.19000
C1644       C  0.75665672  0.59185726  0.23355824    -0.19000
C1645       C  0.73857720  0.58819471  0.21273135    -0.11300
C1646       C  0.73450449  0.59965518  0.18041362     0.21300
C1647       C  0.74921801  0.61490904  0.16921101    -0.20700
C1648       C  0.76743343  0.61850129  0.18998373    -0.11500
C1649       C  0.71461783  0.59518608  0.16003326    -0.15700
C1650       C  0.70541713  0.60839321  0.13638448    -0.29500
C1651       C  0.79148006  0.61086544  0.24294621    -0.03800
C1652       C  0.79968278  0.59733353  0.26724746    -0.40300
H1653       H  0.75868810  0.58289656  0.25861486     0.12400
H1654       H  0.72752060  0.57645665  0.22230870     0.12100
H1655       H  0.74692581  0.62391517  0.14425345     0.11500
H1656       H  0.77853718  0.63020214  0.18044258     0.11800
H1657       H  0.70609509  0.58109041  0.16779760     0.14500
H1658       H  0.71277180  0.62329636  0.13020164     0.13300
H1659       H  0.80074035  0.62450816  0.23522478     0.10900
H1660       H  0.79167358  0.58271641  0.27293958     0.13000
C1661       C  0.26394225  0.85776480  0.66888414     0.19000
C1662       C  0.25236583  0.85480461  0.63613168    -0.19000
C1663       C  0.23082306  0.85632415  0.63614557    -0.11300
C1664       C  0.22036074  0.86097058  0.66908631     0.21300
C1665       C  0.23187872  0.86323783  0.70212582    -0.20700
C1666       C  0.25345034  0.86161010  0.70213107    -0.11500
C1667       C  0.19787098  0.86526725  0.66989931    -0.15700
C1668       C  0.18402335  0.86016212  0.64303853    -0.29500
C1669       C  0.28683153  0.85946575  0.66582897    -0.03800
C1670       C  0.30054978  0.85789650  0.69402954    -0.40300
H1671       H  0.26011806  0.85202737  0.61004894     0.12400
H1672       H  0.22266379  0.85479020  0.61001460     0.12100
H1673       H  0.22421072  0.86692595  0.72789414     0.11500
H1674       H  0.26186678  0.86440643  0.72771869     0.11800
H1675       H  0.19232739  0.87294862  0.69463761     0.14500
H1676       H  0.18842675  0.85118365  0.61908762     0.13300
H1677       H  0.29279378  0.86276033  0.63814694     0.10900
H1678       H  0.29565990  0.85307006  0.72159986     0.13000
C1679       C  0.95883007  0.86799204  0.77200927     0.19000
C1680       C  0.96862028  0.84960162  0.76258255    -0.19000
C1681       C  0.98988140  0.84947097  0.75540528    -0.11300
C1682       C  0.00205307  0.86786412  0.75717413     0.21300
C1683       C  0.99253262  0.88608526  0.76857684    -0.20700
C1684       C  0.97116862  0.88621719  0.77584801    -0.11500
C1685       C  0.02445416  0.86859235  0.74648786    -0.15700
C1686       C  0.03253215  0.85488926  0.72274699    -0.29500
C1687       C  0.93580233  0.86717893  0.77666493    -0.03800
C1688       C  0.92365277  0.88382977  0.77831547    -0.40300
H1689       H  0.95969105  0.83522696  0.76008097     0.12400
H1690       H  0.99662739  0.83486145  0.74843514     0.12100
H1691       H  0.00155391  0.90040827  0.77092986     0.11500
H1692       H  0.96451395  0.90064274  0.78413509     0.11800
H1693       H  0.03409611  0.88157763  0.75600525     0.14500
H1694       H  0.02265961  0.84273842  0.71098324     0.13300
H1695       H  0.92832074  0.85190109  0.77645717     0.10900
H1696       H  0.93045118  0.89934894  0.77779236     0.13000
C1697       C  0.12702738  0.00785809  0.75046459     0.19000
C1698       C  0.10856620  0.99634636  0.74427276    -0.19000
C1699       C  0.10888547  0.97491126  0.73787306    -0.11300
C1700       C  0.12781399  0.96453910  0.73711236     0.21300
C1701       C  0.14623775  0.97622323  0.74253780    -0.20700
C1702       C  0.14590361  0.99753478  0.74892494    -0.11500
C1703       C  0.12947989  0.94174205  0.73108363    -0.15700
C1704       C  0.11351494  0.92825634  0.72460865    -0.29500
C1705       C  0.12628817  0.03052469  0.75842373    -0.03800
C1706       C  0.14082093  0.04033871  0.77932892    -0.40300
H1707       H  0.09381019  0.00390382  0.74501858     0.12400
H1708       H  0.09426910  0.96670012  0.73382206     0.12100
H1709       H  0.16108142  0.96882253  0.74179480     0.11500
H1710       H  0.16054261  0.00587765  0.75220773     0.11800
H1711       H  0.14500140  0.93567890  0.73231103     0.14500
H1712       H  0.09776151  0.93353025  0.72314806     0.13300
H1713       H  0.11300468  0.03900274  0.74874025     0.10900
H1714       H  0.15319605  0.03151651  0.79150480     0.13000
C1715       C  0.26360756  0.85641139  0.17161464     0.19000
C1716       C  0.25313037  0.86288724  0.20344544    -0.19000
C1717       C  0.23154948  0.86447056  0.20294495    -0.11300
C1718       C  0.21994469  0.85961836  0.17080980     0.21300
C1719       C  0.23038780  0.85247931  0.13940872    -0.20700
C1720       C  0.25194980  0.85092600  0.13990147    -0.11500
C1721       C  0.19733858  0.86361114  0.17091942    -0.15700
C1722       C  0.18338455  0.85751859  0.14473360    -0.29500
C1723       C  0.28655690  0.85748190  0.16831498    -0.03800
C1724       C  0.30038248  0.85980900  0.19641067    -0.40300
H1725       H  0.26151762  0.86759858  0.22817426     0.12400
H1726       H  0.22392872  0.87008083  0.22755768     0.12100
H1727       H  0.22218947  0.84880517  0.11397339     0.11500
H1728       H  0.25964645  0.84604211  0.11484669     0.11800
H1729       H  0.19179286  0.87213378  0.19472444     0.14500
H1730       H  0.18778315  0.84801240  0.12146627     0.13300
H1731       H  0.29248950  0.85701359  0.14010180     0.10900
H1732       H  0.29560900  0.85888115  0.22523001     0.13000
C1733       C  0.99341041  0.86451128  0.22663940     0.19000
C1734       C  0.97821518  0.87564743  0.20795264    -0.19000
C1735       C  0.95841625  0.87737482  0.22305875    -0.11300
C1736       C  0.95325265  0.86747788  0.25675428     0.21300
C1737       C  0.96843185  0.85620988  0.27535668    -0.20700
C1738       C  0.98846249  0.85499567  0.26074712    -0.11500
C1739       C  0.93158205  0.86687378  0.27052201    -0.15700
C1740       C  0.91893092  0.88297551  0.26679783    -0.29500
C1741       C  0.01380723  0.86192578  0.20872816    -0.03800
C1742       C  0.03182991  0.86354025  0.22740327    -0.40300
H1743       H  0.98164996  0.88290337  0.18143205     0.12400
H1744       H  0.94689786  0.88567600  0.20751619     0.12100
H1745       H  0.96469880  0.84815800  0.30100658     0.11500
H1746       H  0.99981998  0.84597844  0.27532635     0.11800
H1747       H  0.92570393  0.85249207  0.28277464     0.14500
H1748       H  0.92514139  0.89775228  0.25675080     0.13300
H1749       H  0.01405316  0.86006859  0.17874189     0.10900
H1750       H  0.03183810  0.86740513  0.25674009     0.13000
C1751       C  0.12929828  0.00620770  0.25152993     0.19000
C1752       C  0.11232606  0.99533789  0.23580466    -0.19000
C1753       C  0.11313563  0.97401612  0.22886381    -0.11300
C1754       C  0.13109236  0.96298350  0.23735749     0.21300
C1755       C  0.14835282  0.97406787  0.25166618    -0.20700
C1756       C  0.14751356  0.99535524  0.25868675    -0.11500
C1757       C  0.13269024  0.94012637  0.23153324    -0.15700
C1758       C  0.11636716  0.92701733  0.22551027    -0.29500
C1759       C  0.12753535  0.02877742  0.25984463    -0.03800
C1760       C  0.13869390  0.03840658  0.28670423    -0.40300
H1761       H  0.09822910  0.00332647  0.22935045     0.12400
H1762       H  0.09966688  0.96642619  0.21664932     0.12100
H1763       H  0.16255056  0.96617614  0.25781360     0.11500
H1764       H  0.16124715  0.00323686  0.26941384     0.11800
H1765       H  0.14803530  0.93370839  0.23353268     0.14500
H1766       H  0.10080070  0.93281951  0.22438577     0.13300
H1767       H  0.11591556  0.03739843  0.24493192     0.10900
H1768       H  0.14938976  0.02958928  0.30332441     0.13000
C1769       C  0.10559763  0.86092478  0.88641381     0.19000
C1770       C  0.09300094  0.87369992  0.90758958    -0.19000
C1771       C  0.09506887  0.87470075  0.94633452    -0.11300
C1772       C  0.10956253  0.86251477  0.96523662     0.21300
C1773       C  0.12206062  0.84959596  0.94399593    -0.20700
C1774       C  0.12009948  0.84873382  0.90516745    -0.11500
C1775       C  0.11187635  0.86255830  0.00679846    -0.15700
C1776       C  0.09697852  0.86896323  0.02992705    -0.29500
C1777       C  0.10347031  0.86108635  0.84496342    -0.03800
C1778       C  0.11955195  0.85784764  0.82217748    -0.40300
H1779       H  0.08178800  0.88334342  0.89398775     0.12400
H1780       H  0.08543530  0.88532140  0.96105938     0.12100
H1781       H  0.13326832  0.83992776  0.95754896     0.11500
H1782       H  0.12980014  0.83831625  0.89002510     0.11800
H1783       H  0.12543263  0.85546170  0.01875757     0.14500
H1784       H  0.08261142  0.87445052  0.01839139     0.13300
H1785       H  0.08894777  0.86603576  0.83300530     0.10900
H1786       H  0.13456838  0.85468871  0.83423463     0.13000
C1787       C  0.10764511  0.86199189  0.46552152     0.19000
C1788       C  0.11734144  0.84687573  0.44418711    -0.19000
C1789       C  0.11533866  0.84650382  0.40534153    -0.11300
C1790       C  0.10371658  0.86146005  0.38656985     0.21300
C1791       C  0.09385174  0.87645920  0.40789390    -0.20700
C1792       C  0.09588089  0.87685595  0.44674901    -0.11500
C1793       C  0.10185815  0.86213798  0.34500128    -0.15700
C1794       C  0.11663146  0.85515001  0.32216167    -0.29500
C1795       C  0.11009127  0.86161267  0.50704159    -0.03800
C1796       C  0.09632109  0.86978754  0.53058775    -0.40300
H1797       H  0.12636073  0.83511816  0.45769307     0.12400
H1798       H  0.12276307  0.83433479  0.39021551     0.12100
H1799       H  0.08485738  0.88822304  0.39434994     0.11500
H1800       H  0.08848453  0.88906904  0.46177966     0.11800
H1801       H  0.08904755  0.87043562  0.33295564     0.14500
H1802       H  0.13043591  0.84860833  0.33415426     0.13300
H1803       H  0.12261346  0.85271942  0.51865079     0.10900
H1804       H  0.08270137  0.87704231  0.51935904     0.13000
C1805       C  0.23317146  0.66624631  0.90907333     0.19000
C1806       C  0.24484006  0.66091071  0.94047362    -0.19000
C1807       C  0.26655097  0.66132577  0.93887254    -0.11300
C1808       C  0.27701058  0.66707981  0.90588670     0.21300
C1809       C  0.26536078  0.67366403  0.87545562    -0.20700
C1810       C  0.24369896  0.67302217  0.87689535    -0.11500
C1811       C  0.29995179  0.66580108  0.90250027    -0.15700
C1812       C  0.31009922  0.65031338  0.91872123    -0.29500
C1813       C  0.21036355  0.66250226  0.90665404    -0.03800
C1814       C  0.19700251  0.66022222  0.93538783    -0.40300
H1815       H  0.23731130  0.65549835  0.96562954     0.12400
H1816       H  0.27514031  0.65679264  0.96329630     0.12100
H1817       H  0.27299780  0.67840809  0.84994827     0.11500
H1818       H  0.23509346  0.67722591  0.85226357     0.11800
H1819       H  0.30842751  0.67737757  0.88619210     0.14500
H1820       H  0.30123397  0.63853061  0.93390024     0.13300
H1821       H  0.20416117  0.66104574  0.87864229     0.10900
H1822       H  0.20192477  0.66310281  0.96377425     0.13000
C1823       C  0.95801967  0.62966669  0.88367081     0.19000
C1824       C  0.97369817  0.61561405  0.87653115    -0.19000
C1825       C  0.99453660  0.62102924  0.88345494    -0.11300
C1826       C  0.00010639  0.64058309  0.89824124     0.21300
C1827       C  0.98437979  0.65442821  0.90613923    -0.20700
C1828       C  0.96361905  0.64912447  0.89881151    -0.11500
C1829       C  0.02193472  0.64652985  0.90788204    -0.15700
C1830       C  0.03839406  0.63907956  0.88997384    -0.29500
C1831       C  0.93588221  0.62334706  0.87738671    -0.03800
C1832       C  0.92144377  0.63721852  0.86887376    -0.40300
H1833       H  0.96980272  0.60039151  0.86562054     0.12400
H1834       H  0.00614766  0.60965497  0.87819407     0.12100
H1835       H  0.98816944  0.66940655  0.91818700     0.11500
H1836       H  0.95195605  0.66009763  0.90609697     0.11800
H1837       H  0.02448852  0.65762894  0.93014984     0.14500
H1838       H  0.03598404  0.62879841  0.86648138     0.13300
H1839       H  0.93136735  0.60711594  0.88059024     0.10900
H1840       H  0.92622704  0.65326283  0.86420491     0.13000
C1841       C  0.10755472  0.77143589  0.07486712     0.19000
C1842       C  0.11820295  0.76874133  0.04125026    -0.19000
C1843       C  0.11595924  0.75027598  0.02091560    -0.11300
C1844       C  0.10310484  0.73387291  0.03397686     0.21300
C1845       C  0.09284787  0.73644010  0.06801911    -0.20700
C1846       C  0.09507729  0.75486733  0.08828074    -0.11500
C1847       C  0.09967119  0.71391002  0.01342797    -0.15700
C1848       C  0.11149270  0.70702179  0.98527858    -0.29500
C1849       C  0.10942070  0.79185583  0.09442812    -0.03800
C1850       C  0.09465600  0.79916535  0.11704321    -0.40300
H1851       H  0.12794674  0.78119317  0.03017772     0.12400
H1852       H  0.12401599  0.74916394  0.99476802     0.12100
H1853       H  0.08301472  0.72406286  0.07911664     0.11500
H1854       H  0.08704955  0.75598226  0.11448047     0.11800
H1855       H  0.08739884  0.70362659  0.02386954     0.14500
H1856       H  0.12473260  0.71619688  0.97565150     0.13300
H1857       H  0.12225353  0.80220693  0.08665227     0.10900
H1858       H  0.08073605  0.78984602  0.12228762     0.13000
C1859       C  0.23037113  0.65777990  0.42026149     0.19000
C1860       C  0.24362117  0.66224738  0.39020722    -0.19000
C1861       C  0.26507367  0.66046572  0.39370688    -0.11300
C1862       C  0.27378385  0.65410119  0.42754574     0.21300
C1863       C  0.26054662  0.65020054  0.45788788    -0.20700
C1864       C  0.23909118  0.65202913  0.45439459    -0.11500
C1865       C  0.29627418  0.65023784  0.43226439    -0.15700
C1866       C  0.31139197  0.65599871  0.40817462    -0.29500
C1867       C  0.20769233  0.65676712  0.41325195    -0.03800
C1868       C  0.19274752  0.65610383  0.43947122    -0.40300
H1869       H  0.23728216  0.66651662  0.36345909     0.12400
H1870       H  0.27453784  0.66338199  0.36946026     0.12100
H1871       H  0.26679577  0.64520028  0.48427672     0.11500
H1872       H  0.22942969  0.64802218  0.47796180     0.11800
H1873       H  0.30067329  0.64242384  0.45775659     0.14500
H1874       H  0.30795903  0.66471088  0.38325356     0.13300
H1875       H  0.20303572  0.65572917  0.38425733     0.10900
H1876       H  0.19639615  0.65859089  0.46855751     0.13000
C1877       C  0.95397969  0.64953497  0.37946678     0.19000
C1878       C  0.96738447  0.63520861  0.36366330    -0.19000
C1879       C  0.98875567  0.63668885  0.37035138    -0.11300
C1880       C  0.99720626  0.65262864  0.39286137     0.21300
C1881       C  0.98379442  0.66720253  0.40767948    -0.20700
C1882       C  0.96248937  0.66577371  0.40082995    -0.11500
C1883       C  0.01954794  0.65413203  0.40341405    -0.15700
C1884       C  0.03470365  0.64350400  0.38713143    -0.29500
C1885       C  0.93109022  0.64789577  0.37491217    -0.03800
C1886       C  0.92070973  0.62972031  0.37025175    -0.40300
H1887       H  0.96143640  0.62280009  0.34620689     0.12400
H1888       H  0.99835612  0.62498127  0.35855464     0.12100
H1889       H  0.98979392  0.67963950  0.42508883     0.11500
H1890       H  0.95254365  0.67709174  0.41314762     0.11800
H1891       H  0.02369035  0.66452369  0.42608660     0.14500
H1892       H  0.03136604  0.63353394  0.36361010     0.13300
H1893       H  0.92238074  0.66188096  0.37877955     0.10900
H1894       H  0.92911044  0.61542362  0.36893514     0.13000
C1895       C  0.10951390  0.63371361  0.62749049     0.19000
C1896       C  0.09292984  0.63485860  0.65254265    -0.19000
C1897       C  0.09647247  0.63606010  0.69079383    -0.11300
C1898       C  0.11679011  0.63616845  0.70483675     0.21300
C1899       C  0.13332185  0.63433482  0.67997600    -0.20700
C1900       C  0.12980618  0.63317392  0.64176298    -0.11500
C1901       C  0.12153936  0.63745898  0.74508696    -0.15700
C1902       C  0.10871112  0.64494682  0.77099572    -0.29500
C1903       C  0.10477738  0.63395934  0.58701880    -0.03800
C1904       C  0.11907781  0.63498508  0.55978314    -0.40300
H1905       H  0.07711730  0.63507051  0.64245755     0.12400
H1906       H  0.08326697  0.63671515  0.70909784     0.12100
H1907       H  0.14911698  0.63406063  0.69015045     0.11500
H1908       H  0.14312389  0.63200591  0.62394389     0.11800
H1909       H  0.13675818  0.63241383  0.75359485     0.14500
H1910       H  0.09369160  0.65075851  0.76333097     0.13300
H1911       H  0.08851252  0.63456650  0.57936854     0.10900
H1912       H  0.13547290  0.63475277  0.56599546     0.13000
C1913       C  0.11565553  0.63535417  0.20464384     0.19000
C1914       C  0.12995059  0.62554026  0.18161539    -0.19000
C1915       C  0.12797709  0.62626539  0.14292875    -0.11300
C1916       C  0.11157206  0.63684026  0.12659707     0.21300
C1917       C  0.09726369  0.64653171  0.14952021    -0.20700
C1918       C  0.09930282  0.64595992  0.18804142    -0.11500
C1919       C  0.10813325  0.63768539  0.08601412    -0.15700
C1920       C  0.12299293  0.63616674  0.05998065    -0.29500
C1921       C  0.11885280  0.63458310  0.24551966    -0.03800
C1922       C  0.10571071  0.64196387  0.27110371    -0.40300
H1923       H  0.14270684  0.61724213  0.19361088     0.12400
H1924       H  0.13903616  0.61827542  0.12605595     0.12100
H1925       H  0.08447910  0.65478994  0.13751166     0.11500
H1926       H  0.08807483  0.65403170  0.20426676     0.11800
H1927       H  0.09248469  0.64118829  0.07729107     0.14500
H1928       H  0.13902016  0.63396645  0.06782625     0.13300
H1929       H  0.13309179  0.62767851  0.25501135     0.10900
H1930       H  0.09114895  0.64862721  0.26317017     0.13000
C1931       C  0.09692611  0.77204106  0.56543303     0.19000
C1932       C  0.09530808  0.76970682  0.52669363    -0.19000
C1933       C  0.09766038  0.75031713  0.51002323    -0.11300
C1934       C  0.10118180  0.73274492  0.53196064     0.21300
C1935       C  0.10307321  0.73512523  0.57062602    -0.20700
C1936       C  0.10121185  0.75458092  0.58720623    -0.11500
C1937       C  0.10038591  0.71148401  0.51617892    -0.15700
C1938       C  0.10738941  0.70626731  0.48226834    -0.29500
C1939       C  0.09266668  0.79252688  0.58226764    -0.03800
C1940       C  0.10161860  0.79971356  0.61376189    -0.40300
H1941       H  0.09189230  0.78290240  0.50930873     0.12400
H1942       H  0.09570607  0.74891631  0.48026498     0.12100
H1943       H  0.10555410  0.72176165  0.58816765     0.11500
H1944       H  0.10220558  0.75573542  0.61713521     0.11800
H1945       H  0.09412510  0.69926010  0.53408300     0.14500
H1946       H  0.11562219  0.71759467  0.46507690     0.13300
H1947       H  0.08272130  0.80274003  0.56666495     0.10900
H1948       H  0.11328403  0.79074045  0.62778076     0.13000
C1949       C  0.16369307  0.23088994  0.82877654     0.19000
C1950       C  0.17695745  0.24151861  0.85342832    -0.19000
C1951       C  0.17800737  0.26318979  0.85349748    -0.11300
C1952       C  0.16628194  0.27467958  0.82821956     0.21300
C1953       C  0.15395834  0.26403921  0.80193045    -0.20700
C1954       C  0.15268672  0.24236151  0.80220059    -0.11500
C1955       C  0.16481808  0.29734110  0.83395469    -0.15700
C1956       C  0.15950624  0.31124146  0.80774194    -0.29500
C1957       C  0.16139914  0.20791599  0.83129257    -0.03800
C1958       C  0.14322343  0.19819524  0.82388944    -0.40300
H1959       H  0.18582074  0.23307191  0.87374448     0.12400
H1960       H  0.18754023  0.27104342  0.87416843     0.12100
H1961       H  0.14449930  0.27238437  0.78241179     0.11500
H1962       H  0.14285194  0.23462387  0.78187561     0.11800
H1963       H  0.16730852  0.30274218  0.86222911     0.14500
H1964       H  0.15841321  0.30687370  0.77871069     0.13300
H1965       H  0.17474202  0.19896515  0.83906248     0.10900
H1966       H  0.12989882  0.20734774  0.81687092     0.13000
C1967       C  0.13507314  0.54737599  0.86879749     0.19000
C1968       C  0.14145226  0.53214199  0.89385088    -0.19000
C1969       C  0.14060826  0.51118667  0.88387557    -0.11300
C1970       C  0.13390807  0.50518991  0.84819689     0.21300
C1971       C  0.12773074  0.52049107  0.82305198    -0.20700
C1972       C  0.12804715  0.54135490  0.83337001    -0.11500
C1973       C  0.13501659  0.48343569  0.83531720    -0.15700
C1974       C  0.13198128  0.46686767  0.85764454    -0.29500
C1975       C  0.13715208  0.56958852  0.87883259    -0.03800
C1976       C  0.12228909  0.58303454  0.87066022    -0.40300
H1977       H  0.14717849  0.53649020  0.92110199     0.12400
H1978       H  0.14598397  0.49981189  0.90353867     0.12100
H1979       H  0.12282390  0.51629304  0.79522437     0.11500
H1980       H  0.12349794  0.55286020  0.81321426     0.11800
H1981       H  0.13816661  0.48098510  0.80604227     0.14500
H1982       H  0.12713423  0.46893560  0.88621053     0.13300
H1983       H  0.15110361  0.57491798  0.89322377     0.10900
H1984       H  0.10775852  0.57728435  0.85877458     0.13000
C1985       C  0.15241230  0.23115713  0.33908567     0.19000
C1986       C  0.15401973  0.24218687  0.37243369    -0.19000
C1987       C  0.15267852  0.26379732  0.37251845    -0.11300
C1988       C  0.15019754  0.27492064  0.33920202     0.21300
C1989       C  0.14971283  0.26397224  0.30555793    -0.20700
C1990       C  0.15083006  0.24233688  0.30552314    -0.11500
C1991       C  0.14626010  0.29750035  0.34130045    -0.15700
C1992       C  0.14867323  0.31130907  0.31320795    -0.29500
C1993       C  0.15133108  0.20804478  0.33980037    -0.03800
C1994       C  0.13835194  0.19765120  0.31688426    -0.40300
H1995       H  0.15538440  0.23401242  0.39859479     0.12400
H1996       H  0.15309958  0.27183605  0.39887179     0.12100
H1997       H  0.14762241  0.27191329  0.27938517     0.11500
H1998       H  0.15008453  0.23431903  0.27918664     0.11800
H1999       H  0.14112935  0.30312847  0.36807706     0.14500
H2000       H  0.15525820  0.30677082  0.28688157     0.13300
H2001       H  0.16021743  0.19970896  0.36035878     0.10900
H2002       H  0.12868357  0.20648148  0.29823207     0.13000
C2003       C  0.13301568  0.50155424  0.37915962     0.19000
C2004       C  0.11489627  0.51189893  0.38828660    -0.19000
C2005       C  0.11510591  0.53352903  0.39152551    -0.11300
C2006       C  0.13358924  0.54522618  0.38598625     0.21300
C2007       C  0.15187146  0.53471376  0.37877083    -0.20700
C2008       C  0.15163510  0.51317876  0.37540220    -0.11500
C2009       C  0.13474794  0.56828073  0.38734136    -0.15700
C2010       C  0.11832289  0.58058855  0.38395653    -0.29500
C2011       C  0.13205173  0.47876786  0.37296148    -0.03800
C2012       C  0.14459713  0.46958793  0.34860576    -0.40300
H2013       H  0.10042825  0.50326559  0.39199661     0.12400
H2014       H  0.10079508  0.54089578  0.39837612     0.12100
H2015       H  0.16640549  0.54324053  0.37507388     0.11500
H2016       H  0.16608476  0.50570615  0.36983485     0.11800
H2017       H  0.15012739  0.57548875  0.38906367     0.14500
H2018       H  0.10281686  0.57394778  0.38089133     0.13300
H2019       H  0.11983649  0.46964653  0.38647268     0.10900
H2020       H  0.15580003  0.47891914  0.33300608     0.13000
C2021       C  0.13093163  0.39314597  0.61798081     0.19000
C2022       C  0.13078523  0.41046158  0.59420124    -0.19000
C2023       C  0.13205779  0.40812620  0.55570361    -0.11300
C2024       C  0.13349913  0.38830800  0.54017553     0.21300
C2025       C  0.13325989  0.37099773  0.56386007    -0.20700
C2026       C  0.13201549  0.37331675  0.60228625    -0.11500
C2027       C  0.13417890  0.38462984  0.49959548    -0.15700
C2028       C  0.13877323  0.39904461  0.47344233    -0.29500
C2029       C  0.13053718  0.39676717  0.65870181    -0.03800
C2030       C  0.13311623  0.38214989  0.68511145    -0.40300
H2031       H  0.12980624  0.42593109  0.60547171     0.12400
H2032       H  0.13159970  0.42181798  0.53841730     0.12100
H2033       H  0.13407937  0.35552096  0.55255588     0.11500
H2034       H  0.13189593  0.35948333  0.61917968     0.11800
H2035       H  0.13082998  0.36879858  0.49086364     0.14500
H2036       H  0.14297314  0.41484540  0.48100229     0.13300
H2037       H  0.12912582  0.41277304  0.66731540     0.10900
H2038       H  0.13469736  0.36600256  0.67800999     0.13000
C2039       C  0.12614795  0.39415463  0.11744884     0.19000
C2040       C  0.12917335  0.41120299  0.09355371    -0.19000
C2041       C  0.12966189  0.40857078  0.05510468    -0.11300
C2042       C  0.12708822  0.38871324  0.03969908     0.21300
C2043       C  0.12331807  0.37176619  0.06352662    -0.20700
C2044       C  0.12287982  0.37439314  0.10200113    -0.11500
C2045       C  0.12805969  0.38479561  0.99918287    -0.15700
C2046       C  0.13622426  0.39808740  0.97382506    -0.29500
C2047       C  0.12674668  0.39791383  0.15805557    -0.03800
C2048       C  0.12950332  0.38324889  0.18428928    -0.40300
H2049       H  0.13145716  0.42665500  0.10471144     0.12400
H2050       H  0.13194987  0.42214110  0.03782230     0.12100
H2051       H  0.12095152  0.35633274  0.05233640     0.11500
H2052       H  0.11990976  0.36093350  0.11927459     0.11800
H2053       H  0.12245046  0.36963807  0.98999276     0.14500
H2054       H  0.14234665  0.41321628  0.98181675     0.13300
H2055       H  0.12635740  0.41402754  0.16653722     0.10900
H2056       H  0.13071811  0.36708100  0.17689077     0.13000
C2057       C  0.34521276  0.23806879  0.57785095     0.19000
C2058       C  0.34686485  0.25057221  0.60970981    -0.19000
C2059       C  0.34731250  0.27219914  0.60679248    -0.11300
C2060       C  0.34619270  0.28173032  0.57176297     0.21300
C2061       C  0.34379985  0.26924114  0.54011488    -0.20700
C2062       C  0.34325185  0.24767291  0.54302369    -0.11500
C2063       C  0.34965092  0.30433028  0.56625477    -0.15700
C2064       C  0.34714486  0.31902372  0.59227424    -0.29500
C2065       C  0.34775792  0.21537298  0.58193897    -0.03800
C2066       C  0.34351942  0.20110386  0.55543272    -0.40300
H2067       H  0.34853236  0.24357808  0.63689932     0.12400
H2068       H  0.34954589  0.28128979  0.63172545     0.12100
H2069       H  0.34302545  0.27621959  0.51276779     0.11500
H2070       H  0.34230421  0.23873664  0.51773829     0.11800
H2071       H  0.35450024  0.30915687  0.53858403     0.14500
H2072       H  0.34093762  0.31510663  0.61944479     0.13300
H2073       H  0.35386978  0.21013843  0.60841709     0.10900
H2074       H  0.33606214  0.20528061  0.52957840     0.13000
C2075       C  0.50031097  0.37596232  0.50526242     0.19000
C2076       C  0.49098965  0.39512347  0.51058574    -0.19000
C2077       C  0.46961362  0.39616303  0.51711803    -0.11300
C2078       C  0.45715817  0.37792004  0.51885117     0.21300
C2079       C  0.46667680  0.35880509  0.51433171    -0.20700
C2080       C  0.48791028  0.35779045  0.50775149    -0.11500
C2081       C  0.43426759  0.37761148  0.52461727    -0.15700
C2082       C  0.42234251  0.39432271  0.52838693    -0.29500
C2083       C  0.52293289  0.37525560  0.49740795    -0.03800
C2084       C  0.53112692  0.36003296  0.47717940    -0.40300
H2085       H  0.50022478  0.40935399  0.50908938     0.12400
H2086       H  0.46307529  0.41124192  0.52055170     0.12100
H2087       H  0.45760666  0.34446671  0.51580380     0.11500
H2088       H  0.49455915  0.34268327  0.50507998     0.11800
H2089       H  0.42664538  0.36239994  0.52478480     0.14500
H2090       H  0.42913382  0.40984403  0.52829117     0.13300
H2091       H  0.53284726  0.38813472  0.50650871     0.10900
H2092       H  0.52105165  0.34806738  0.46526593     0.13000
C2093       C  0.36663544  0.55020603  0.49247123     0.19000
C2094       C  0.34956469  0.54081222  0.51051546    -0.19000
C2095       C  0.34942057  0.51980044  0.51973654    -0.11300
C2096       C  0.36646897  0.50760040  0.51118792     0.21300
C2097       C  0.38321756  0.51676359  0.49186495    -0.20700
C2098       C  0.38337464  0.53784419  0.48262381    -0.11500
C2099       C  0.36715441  0.48530910  0.52159028    -0.15700
C2100       C  0.35635434  0.47712446  0.55025671    -0.29500
C2101       C  0.36613723  0.57286305  0.48498424    -0.03800
C2102       C  0.38274826  0.58486653  0.47568739    -0.40300
H2103       H  0.33630388  0.54983389  0.51791558     0.12400
H2104       H  0.33581842  0.51321586  0.53322792     0.12100
H2105       H  0.39637745  0.50763493  0.48434677     0.11500
H2106       H  0.39659255  0.54421731  0.46774798     0.11800
H2107       H  0.37758996  0.47557033  0.50629818     0.14500
H2108       H  0.34681189  0.48689259  0.56720054     0.13300
H2109       H  0.35143469  0.58024092  0.48950658     0.10900
H2110       H  0.39780845  0.57821107  0.47188157     0.13000
C2111       C  0.23030576  0.41065805  0.72084256     0.19000
C2112       C  0.23317748  0.41094067  0.68216911    -0.19000
C2113       C  0.25309152  0.41067895  0.66685513    -0.11300
C2114       C  0.27062847  0.41060415  0.69001192     0.21300
C2115       C  0.26777095  0.41051111  0.72872022    -0.20700
C2116       C  0.24782226  0.41028524  0.74403905    -0.11500
C2117       C  0.29203807  0.41218607  0.67483007    -0.15700
C2118       C  0.29785106  0.40406818  0.64206837    -0.29500
C2119       C  0.20892181  0.41186040  0.73586287    -0.03800
C2120       C  0.20244793  0.40231810  0.76728361    -0.40300
H2121       H  0.21992771  0.41142802  0.66370994     0.12400
H2122       H  0.25474378  0.41125511  0.63696939     0.12100
H2123       H  0.28104792  0.41072278  0.74717636     0.11500
H2124       H  0.24615277  0.41048677  0.77393508     0.11800
H2125       H  0.30378353  0.41964284  0.69229544     0.14500
H2126       H  0.28688563  0.39485249  0.62573748     0.13300
H2127       H  0.19755962  0.41952885  0.71867692     0.10900
H2128       H  0.21295890  0.39270640  0.78283957     0.13000
C2129       C  0.34362062  0.28350815  0.06703035     0.19000
C2130       C  0.34834396  0.27076974  0.03675866    -0.19000
C2131       C  0.34519266  0.24927189  0.03872728    -0.11300
C2132       C  0.33717836  0.24003661  0.07118390     0.21300
C2133       C  0.33167977  0.25284510  0.10086424    -0.20700
C2134       C  0.33484141  0.27431063  0.09892304    -0.11500
C2135       C  0.33680111  0.21728908  0.07754702    -0.15700
C2136       C  0.33965029  0.20252622  0.05162862    -0.29500
C2137       C  0.34953892  0.30590989  0.06480518    -0.03800
C2138       C  0.34436446  0.32054497  0.08957671    -0.40300
H2139       H  0.35515964  0.27741813  0.01182573     0.12400
H2140       H  0.34995549  0.23999566  0.01549769     0.12100
H2141       H  0.32561779  0.24613224  0.12635373     0.11500
H2142       H  0.33113324  0.28336912  0.12304463     0.11800
H2143       H  0.33517512  0.21244046  0.10636454     0.14500
H2144       H  0.34001335  0.20624223  0.02225190     0.13300
H2145       H  0.35889907  0.31063427  0.04103418     0.10900
H2146       H  0.33411205  0.31698343  0.11262504     0.13000
C2147       C  0.50377694  0.37799149  0.00597949     0.19000
C2148       C  0.49479447  0.39515442  0.02277083    -0.19000
C2149       C  0.47358661  0.39486980  0.03129814    -0.11300
C2150       C  0.46100277  0.37724735  0.02338519     0.21300
C2151       C  0.47023161  0.35988618  0.00791816    -0.20700
C2152       C  0.49128437  0.36018715  0.99940635    -0.11500
C2153       C  0.43825656  0.37599987  0.03011896    -0.15700
C2154       C  0.42620476  0.39239124  0.03569844    -0.29500
C2155       C  0.52619966  0.37872661  0.99619035    -0.03800
C2156       C  0.53372986  0.36732401  0.96834301    -0.40300
H2157       H  0.50414613  0.40891526  0.02880916     0.12400
H2158       H  0.46726173  0.40840021  0.04412716     0.12100
H2159       H  0.46104526  0.34599455  0.00199755     0.11500
H2160       H  0.49770798  0.34628404  0.98806891     0.11800
H2161       H  0.43081007  0.36077387  0.02754412     0.14500
H2162       H  0.43295319  0.40791514  0.03726845     0.13300
H2163       H  0.53656616  0.38911806  0.01155151     0.10900
H2164       H  0.52320603  0.35792208  0.95147202     0.13000
C2165       C  0.36298253  0.55626892  0.01575424     0.19000
C2166       C  0.37927252  0.54248367  0.01093167    -0.19000
C2167       C  0.37681655  0.52165559  0.02148197    -0.11300
C2168       C  0.35802736  0.51418437  0.03699810     0.21300
C2169       C  0.34185068  0.52793986  0.04154314    -0.20700
C2170       C  0.34425907  0.54864966  0.03093321    -0.11500
C2171       C  0.35492540  0.49255032  0.05056970    -0.15700
C2172       C  0.36594790  0.47656885  0.03856352    -0.29500
C2173       C  0.36463529  0.57875525  0.00670079    -0.03800
C2174       C  0.38112893  0.58864460  0.99110419    -0.40300
H2175       H  0.39404285  0.54761485  0.99973309     0.12400
H2176       H  0.38987911  0.51169379  0.01841794     0.12100
H2177       H  0.32726806  0.52265959  0.05354796     0.11500
H2178       H  0.33142872  0.55884355  0.03505512     0.11800
H2179       H  0.34269377  0.48960669  0.07073410     0.14500
H2180       H  0.37755095  0.47891776  0.01712170     0.13300
H2181       H  0.35123957  0.58779500  0.01361942     0.10900
H2182       H  0.39474752  0.58033211  0.98312745     0.13000
C2183       C  0.37411661  0.39964143  0.78202097     0.19000
C2184       C  0.37058199  0.41625320  0.80588223    -0.19000
C2185       C  0.36941855  0.41324709  0.84412675    -0.11300
C2186       C  0.37187163  0.39341581  0.85950471     0.21300
C2187       C  0.37586216  0.37683567  0.83559867    -0.20700
C2188       C  0.37697380  0.37986509  0.79719349    -0.11500
C2189       C  0.37067414  0.38926729  0.90005408    -0.15700
C2190       C  0.36544541  0.40331013  0.92576992    -0.29500
C2191       C  0.37441336  0.40388893  0.74167007    -0.03800
C2192       C  0.37009248  0.38965032  0.71536640    -0.40300
H2193       H  0.36842654  0.43166760  0.79482508     0.12400
H2194       H  0.36667938  0.42663007  0.86106002     0.12100
H2195       H  0.37807478  0.36143854  0.84666816     0.11500
H2196       H  0.38023723  0.36678308  0.77970439     0.11800
H2197       H  0.37427234  0.37371326  0.90915893     0.14500
H2198       H  0.36163720  0.41896090  0.91811892     0.13300
H2199       H  0.37632351  0.42004734  0.73354433     0.10900
H2200       H  0.36730718  0.37351141  0.72266587     0.13000
C2201       C  0.35960529  0.39860418  0.36029822     0.19000
C2202       C  0.36815588  0.38421291  0.33597804    -0.19000
C2203       C  0.36760187  0.38731666  0.29763207    -0.11300
C2204       C  0.35829053  0.40489771  0.28270601     0.21300
C2205       C  0.34974099  0.41931676  0.30693466    -0.20700
C2206       C  0.35025097  0.41619434  0.34533799    -0.11500
C2207       C  0.35788054  0.40919183  0.24227613    -0.15700
C2208       C  0.35945347  0.39455468  0.21593965    -0.29500
C2209       C  0.36056578  0.39422896  0.40074902    -0.03800
C2210       C  0.35620047  0.40778775  0.42784965    -0.40300
H2211       H  0.37549634  0.37054431  0.34671483     0.12400
H2212       H  0.37486597  0.37613149  0.27999660     0.12100
H2213       H  0.34250466  0.43301266  0.29607236     0.11500
H2214       H  0.34312178  0.42750172  0.36284729     0.11800
H2215       H  0.35541163  0.42511576  0.23388568     0.14500
H2216       H  0.36047719  0.37834202  0.22345209     0.13300
H2217       H  0.36553592  0.37887756  0.40858617     0.10900
H2218       H  0.35168603  0.42342349  0.42140406     0.13000
C2219       C  0.22820644  0.40243251  0.21063962     0.19000
C2220       C  0.23052262  0.40324805  0.17183438    -0.19000
C2221       C  0.25019263  0.40492160  0.15557737    -0.11300
C2222       C  0.26805776  0.40611788  0.17791031     0.21300
C2223       C  0.26576129  0.40478852  0.21671661    -0.20700
C2224       C  0.24608539  0.40282659  0.23295795    -0.11500
C2225       C  0.28914866  0.41017199  0.16222015    -0.15700
C2226       C  0.29495423  0.40575098  0.12718225    -0.29500
C2227       C  0.20698161  0.40338914  0.22655508    -0.03800
C2228       C  0.20121082  0.39613822  0.26032575    -0.40300
H2229       H  0.21698754  0.40309989  0.15399320     0.12400
H2230       H  0.25125357  0.40618131  0.12568401     0.12100
H2231       H  0.27925812  0.40572163  0.23462414     0.11500
H2232       H  0.24490310  0.40260118  0.26292386     0.11800
H2233       H  0.30093072  0.41618459  0.18128426     0.14500
H2234       H  0.28434882  0.39773138  0.10836854     0.13300
H2235       H  0.19522756  0.41007729  0.20885540     0.10900
H2236       H  0.21195025  0.38764490  0.27742783     0.13000
C2237       C  0.72267213  0.15960273  0.68935828     0.19000
C2238       C  0.73533576  0.15686865  0.65810480    -0.19000
C2239       C  0.75679301  0.16057197  0.66010995    -0.11300
C2240       C  0.76601945  0.16711188  0.69362715     0.21300
C2241       C  0.75320128  0.17075216  0.72427492    -0.20700
C2242       C  0.73183742  0.16699060  0.72231772    -0.11500
C2243       C  0.78878811  0.16768730  0.70006454    -0.15700
C2244       C  0.80361241  0.16400994  0.67466973    -0.29500
C2245       C  0.70042818  0.15304833  0.68710957    -0.03800
C2246       C  0.68577767  0.15776879  0.71219302    -0.40300
H2247       H  0.72868168  0.15119199  0.63230787     0.12400
H2248       H  0.76603191  0.15741814  0.63590982     0.12100
H2249       H  0.75986473  0.17564459  0.75056647     0.11500
H2250       H  0.72285134  0.16902372  0.74723451     0.11800
H2251       H  0.79356377  0.16945649  0.72888777     0.14500
H2252       H  0.80010312  0.16321693  0.64525128     0.13300
H2253       H  0.69584610  0.14380822  0.66312438     0.10900
H2254       H  0.68925348  0.16804368  0.73523618     0.13000
C2255       C  0.86025977  0.00701854  0.78277768     0.19000
C2256       C  0.84635099  0.02256736  0.79148493    -0.19000
C2257       C  0.85029933  0.04306287  0.78039651    -0.11300
C2258       C  0.86839883  0.04849475  0.76049892     0.21300
C2259       C  0.88247311  0.03305428  0.75229259    -0.20700
C2260       C  0.87845986  0.01252376  0.76313272    -0.11500
C2261       C  0.87365033  0.07035074  0.75057061    -0.15700
C2262       C  0.85904251  0.08418941  0.74318713    -0.29500
C2263       C  0.85587938  0.98555387  0.79641366    -0.03800
C2264       C  0.86429275  0.96877331  0.78121189    -0.40300
H2265       H  0.83243885  0.01886931  0.80717656     0.12400
H2266       H  0.83946664  0.05470294  0.78846596     0.12100
H2267       H  0.89670580  0.03692751  0.73767880     0.11500
H2268       H  0.89000319  0.00123466  0.75702185     0.11800
H2269       H  0.88989241  0.07520617  0.75005048     0.14500
H2270       H  0.84288160  0.07910697  0.74200818     0.13300
H2271       H  0.84531609  0.98351937  0.81966581     0.10900
H2272       H  0.87414699  0.97040767  0.75698538     0.13000
C2273       C  0.99591892  0.14220294  0.73375396     0.19000
C2274       C  0.00945627  0.15930481  0.72894518    -0.19000
C2275       C  0.03027695  0.15819668  0.73869209    -0.11300
C2276       C  0.03832280  0.13980822  0.75281391     0.21300
C2277       C  0.02478310  0.12260106  0.75824092    -0.20700
C2278       C  0.00369126  0.12381895  0.74887800    -0.11500
C2279       C  0.06094854  0.13970028  0.76056217    -0.15700
C2280       C  0.07262906  0.12274648  0.76351513    -0.29500
C2281       C  0.97426929  0.14409967  0.72036169    -0.03800
C2282       C  0.95783874  0.13306975  0.73339019    -0.40300
H2283       H  0.00391556  0.17362489  0.71731865     0.12400
H2284       H  0.04027961  0.17172061  0.73428943     0.12100
H2285       H  0.03035889  0.10825611  0.76953953     0.11500
H2286       H  0.99370948  0.11023930  0.75247231     0.11800
H2287       H  0.06874177  0.15482949  0.76111682     0.14500
H2288       H  0.06558320  0.10731836  0.76289780     0.13300
H2289       H  0.97165641  0.15596206  0.69951588     0.10900
H2290       H  0.95974364  0.12191600  0.75565712     0.13000
C2291       C  0.71888675  0.15694622  0.19109778     0.19000
C2292       C  0.73196629  0.14924132  0.16344745    -0.19000
C2293       C  0.75341150  0.15305018  0.16463328    -0.11300
C2294       C  0.76233858  0.16474635  0.19362010     0.21300
C2295       C  0.74922446  0.17316853  0.22042945    -0.20700
C2296       C  0.72775478  0.16942236  0.21919275    -0.11500
C2297       C  0.78510227  0.16570534  0.20032348    -0.15700
C2298       C  0.79990156  0.16180322  0.17492418    -0.29500
C2299       C  0.69643002  0.15073969  0.18985147    -0.03800
C2300       C  0.68169579  0.15621897  0.21437797    -0.40300
H2301       H  0.72564256  0.13960598  0.14137635     0.12400
H2302       H  0.76296981  0.14589132  0.14395594     0.12100
H2303       H  0.75571298  0.18211427  0.24326279     0.11500
H2304       H  0.71841695  0.17584587  0.24091297     0.11800
H2305       H  0.78986053  0.16832463  0.22895285     0.14500
H2306       H  0.79612114  0.16052372  0.14563677     0.13300
H2307       H  0.69175895  0.14070177  0.16697511     0.10900
H2308       H  0.68526906  0.16665154  0.23713054     0.13000
C2309       C  0.85813547  0.00606864  0.28662383     0.19000
C2310       C  0.84469393  0.02174360  0.29686381    -0.19000
C2311       C  0.84848411  0.04224913  0.28558121    -0.11300
C2312       C  0.86599129  0.04761077  0.26399894     0.21300
C2313       C  0.87965083  0.03202831  0.25430525    -0.20700
C2314       C  0.87575223  0.01146658  0.26527330    -0.11500
C2315       C  0.87103599  0.06950891  0.25360137    -0.15700
C2316       C  0.85628565  0.08345899  0.24768193    -0.29500
C2317       C  0.85395730  0.98456419  0.30038907    -0.03800
C2318       C  0.86110466  0.96771491  0.28331145    -0.40300
H2319       H  0.83124597  0.01812636  0.31384392     0.12400
H2320       H  0.83800380  0.05395473  0.29477453     0.12100
H2321       H  0.89344712  0.03580201  0.23834796     0.11500
H2322       H  0.88692515  0.00002909  0.25789084     0.11800
H2323       H  0.88725049  0.07426820  0.25125013     0.14500
H2324       H  0.84010319  0.07842868  0.24823427     0.13300
H2325       H  0.84455697  0.98256351  0.32519390     0.10900
H2326       H  0.86968774  0.96943192  0.25757825     0.13000
C2327       C  0.03644088  0.13555529  0.23580360     0.19000
C2328       C  0.02248952  0.12115175  0.25230751    -0.19000
C2329       C  0.00112149  0.12219824  0.24530375    -0.11300
C2330       C  0.99346825  0.13763388  0.22164686     0.21300
C2331       C  0.00750866  0.15186098  0.20532742    -0.20700
C2332       C  0.02863940  0.15092667  0.21249695    -0.11500
C2333       C  0.97127446  0.13934752  0.21154390    -0.15700
C2334       C  0.95503020  0.13074483  0.23000898    -0.29500
C2335       C  0.05912595  0.13593985  0.24261138    -0.03800
C2336       C  0.07021367  0.11999910  0.25537965    -0.40300
H2337       H  0.02792913  0.10928561  0.27089169     0.12400
H2338       H  0.99078729  0.11079219  0.25797805     0.12100
H2339       H  0.00210112  0.16387256  0.18690969     0.11500
H2340       H  0.03898327  0.16226609  0.19949780     0.11800
H2341       H  0.96815865  0.14898466  0.18747431     0.14500
H2342       H  0.95731208  0.12150026  0.25479927     0.13300
H2343       H  0.06733391  0.15024203  0.23500055     0.10900
H2344       H  0.06274154  0.10519299  0.26189416     0.13000
C2345       C  0.87805369  0.13314643  0.91195586     0.19000
C2346       C  0.86075659  0.12945347  0.93487095    -0.19000
C2347       C  0.86289189  0.12853107  0.97342940    -0.11300
C2348       C  0.88250388  0.13126039  0.98992754     0.21300
C2349       C  0.89987334  0.13440695  0.96694774    -0.20700
C2350       C  0.89773507  0.13535054  0.92839629    -0.11500
C2351       C  0.88581383  0.13117832  0.03071095    -0.15700
C2352       C  0.87080581  0.13258419  0.05658229    -0.29500
C2353       C  0.87462030  0.13434101  0.87127743    -0.03800
C2354       C  0.88860079  0.14145618  0.84616811    -0.40300
H2355       H  0.84542977  0.12743358  0.92289038     0.12400
H2356       H  0.84915654  0.12560227  0.98988790     0.12100
H2357       H  0.91521400  0.13635461  0.97890407     0.11500
H2358       H  0.91154871  0.13768103  0.91188542     0.11800
H2359       H  0.90187519  0.13120871  0.03980349     0.14500
H2360       H  0.85461848  0.13317963  0.04878741     0.13300
H2361       H  0.85926216  0.12957593  0.86161590     0.10900
H2362       H  0.90403240  0.14661612  0.85443768     0.13000
C2363       C  0.87775184  0.13980188  0.41275063     0.19000
C2364       C  0.86183387  0.13303530  0.43676343    -0.19000
C2365       C  0.86526454  0.13144827  0.47494102    -0.11300
C2366       C  0.88475521  0.13682634  0.49004691     0.21300
C2367       C  0.90071262  0.14349673  0.46605100    -0.20700
C2368       C  0.89728470  0.14508709  0.42785249    -0.11500
C2369       C  0.88922395  0.13595264  0.53044986    -0.15700
C2370       C  0.87466171  0.13531320  0.55724033    -0.29500
C2371       C  0.87302193  0.14111680  0.37245433    -0.03800
C2372       C  0.88714916  0.14423219  0.34534017    -0.40300
H2373       H  0.84664490  0.12880074  0.42590105     0.12400
H2374       H  0.85265312  0.12580122  0.49219261     0.12100
H2375       H  0.91587622  0.14777947  0.47697351     0.11500
H2376       H  0.90993782  0.15067921  0.41067335     0.11800
H2377       H  0.90543108  0.13739050  0.53851056     0.14500
H2378       H  0.85831790  0.13488529  0.55030643     0.13300
H2379       H  0.85684926  0.13883103  0.36465971     0.10900
H2380       H  0.90348585  0.14627435  0.35162039     0.13000
C2381       C  0.72734050  0.33999667  0.95505473     0.19000
C2382       C  0.74051591  0.33616560  0.98529090    -0.19000
C2383       C  0.76202409  0.33856053  0.98184347    -0.11300
C2384       C  0.77084594  0.34490964  0.94787312     0.21300
C2385       C  0.75770070  0.34774414  0.91718503    -0.20700
C2386       C  0.73620670  0.34533795  0.92063487    -0.11500
C2387       C  0.79327789  0.35030699  0.94348983    -0.15700
C2388       C  0.80828532  0.34671739  0.96871743    -0.29500
C2389       C  0.70473896  0.34118281  0.96211081    -0.03800
C2390       C  0.68988172  0.34196254  0.93571116    -0.40300
H2391       H  0.73408757  0.33213875  0.01220153     0.12400
H2392       H  0.77143574  0.33629474  0.00628310     0.12100
H2393       H  0.76403916  0.35262396  0.89064206     0.11500
H2394       H  0.72667717  0.34879410  0.89680667     0.11800
H2395       H  0.79770617  0.35784607  0.91755051     0.14500
H2396       H  0.80498725  0.33824392  0.99412733     0.13300
H2397       H  0.70021894  0.34277880  0.99100185     0.10900
H2398       H  0.69339111  0.33908400  0.90678671     0.13000
C2399       C  0.86135578  0.45812696  0.88214302     0.19000
C2400       C  0.84536644  0.46554228  0.85975405    -0.19000
C2401       C  0.84492585  0.48635901  0.84951645    -0.11300
C2402       C  0.86025938  0.50053197  0.86185511     0.21300
C2403       C  0.87623010  0.49328731  0.88486731    -0.20700
C2404       C  0.87677765  0.47225109  0.89490790    -0.11500
C2405       C  0.85901403  0.52238303  0.84876044    -0.15700
C2406       C  0.86908717  0.53881783  0.86404147    -0.29500
C2407       C  0.86102261  0.43557607  0.89096568    -0.03800
C2408       C  0.87765249  0.42469348  0.90112598    -0.40300
H2409       H  0.83325907  0.45508200  0.84955107     0.12400
H2410       H  0.83246248  0.49141341  0.83175820     0.12100
H2411       H  0.88849657  0.50363043  0.89463272     0.11500
H2412       H  0.88917574  0.46719874  0.91272031     0.11800
H2413       H  0.84857795  0.52513059  0.82563894     0.14500
H2414       H  0.87917502  0.53685841  0.88783741     0.13300
H2415       H  0.84645748  0.42719478  0.88599968     0.10900
H2416       H  0.89262524  0.43242697  0.90494980     0.13000
C2417       C  0.04423525  0.37805469  0.89326306     0.19000
C2418       C  0.02863153  0.39269529  0.89089850    -0.19000
C2419       C  0.00829878  0.38756060  0.90186270    -0.11300
C2420       C  0.00321593  0.36769122  0.91598716     0.21300
C2421       C  0.01899286  0.35332796  0.91955910    -0.20700
C2422       C  0.03921631  0.35836192  0.90816739    -0.11500
C2423       C  0.98188073  0.36170690  0.92853303    -0.15700
C2424       C  0.96473144  0.36986944  0.91382185    -0.29500
C2425       C  0.06589744  0.38395879  0.88248467    -0.03800
C2426       C  0.07910313  0.37000490  0.86933691    -0.40300
H2427       H  0.03217474  0.40812219  0.88042822     0.12400
H2428       H  0.99673537  0.39932098  0.89998054     0.12100
H2429       H  0.01563563  0.33809176  0.93106497     0.11500
H2430       H  0.05099351  0.34694361  0.91193950     0.11800
H2431       H  0.98025064  0.34977130  0.94974168     0.14500
H2432       H  0.96618159  0.38107154  0.89138616     0.13300
H2433       H  0.07123250  0.39987526  0.88672462     0.10900
H2434       H  0.07346124  0.35429488  0.86404249     0.13000
C2435       C  0.88826092  0.23116732  0.09086588     0.19000
C2436       C  0.87812225  0.23540458  0.05721901    -0.19000
C2437       C  0.88356869  0.25300157  0.03608317    -0.11300
C2438       C  0.89921219  0.26701248  0.04840296     0.21300
C2439       C  0.90931807  0.26274002  0.08207051    -0.20700
C2440       C  0.90387299  0.24518134  0.10316244    -0.11500
C2441       C  0.90498685  0.28666532  0.02835488    -0.15700
C2442       C  0.89312316  0.29565925  0.00230072    -0.29500
C2443       C  0.88258388  0.21172195  0.11157379    -0.03800
C2444       C  0.89581232  0.20214110  0.13447232    -0.40300
H2445       H  0.86612656  0.22485721  0.04690133     0.12400
H2446       H  0.87554960  0.25536058  0.01011233     0.12100
H2447       H  0.92129212  0.27326930  0.09252974     0.11500
H2448       H  0.91177904  0.24287078  0.12928649     0.11800
H2449       H  0.91847537  0.29533440  0.03862399     0.14500
H2450       H  0.87881468  0.28810156  0.99319924     0.13300
H2451       H  0.86810087  0.20373618  0.10432702     0.10900
H2452       H  0.91119583  0.20881997  0.13903626     0.13000
C2453       C  0.72462232  0.34876600  0.45156401     0.19000
C2454       C  0.73774183  0.35185401  0.48245554    -0.19000
C2455       C  0.75913972  0.34918710  0.47959091    -0.11300
C2456       C  0.76782645  0.34338694  0.44557407     0.21300
C2457       C  0.75462028  0.33962992  0.41514535    -0.20700
C2458       C  0.73330773  0.34226802  0.41799076    -0.11500
C2459       C  0.79049641  0.34362783  0.43876914    -0.15700
C2460       C  0.80554000  0.34381776  0.46491470    -0.29500
C2461       C  0.70240862  0.35403508  0.45484839    -0.03800
C2462       C  0.68745069  0.34892630  0.42991860    -0.40300
H2463       H  0.73148987  0.35696520  0.50865288     0.12400
H2464       H  0.76881289  0.35261903  0.50346706     0.12100
H2465       H  0.76092871  0.33534408  0.38849558     0.11500
H2466       H  0.72398044  0.34004899  0.39330947     0.11800
H2467       H  0.79507680  0.34451182  0.40976136     0.14500
H2468       H  0.80188450  0.34171275  0.49408553     0.13300
H2469       H  0.69814019  0.36265182  0.47942372     0.10900
H2470       H  0.69064120  0.33923493  0.40623169     0.13000
C2471       C  0.88225439  0.45551723  0.38019884     0.19000
C2472       C  0.89559891  0.47206553  0.39039494    -0.19000
C2473       C  0.89101828  0.49248201  0.38038703    -0.11300
C2474       C  0.87313373  0.49662288  0.35938179     0.21300
C2475       C  0.86018385  0.47996712  0.34840404    -0.20700
C2476       C  0.86460689  0.45971699  0.35872719    -0.11500
C2477       C  0.86785689  0.51779220  0.34658990    -0.15700
C2478       C  0.87409832  0.53539663  0.36370601    -0.29500
C2479       C  0.88704088  0.43383081  0.39077193    -0.03800
C2480       C  0.87170292  0.42011882  0.39909656    -0.40300
H2481       H  0.90947454  0.46920168  0.40634497     0.12400
H2482       H  0.90172432  0.50484857  0.38840623     0.12100
H2483       H  0.84652931  0.48262989  0.33170069     0.11500
H2484       H  0.85436093  0.44728499  0.34919555     0.11800
H2485       H  0.85778389  0.51884367  0.32246716     0.14500
H2486       H  0.88341544  0.53473658  0.38877897     0.13300
H2487       H  0.90303707  0.42906144  0.39075201     0.10900
H2488       H  0.85594792  0.42555377  0.40058268     0.13000
C2489       C  0.03814576  0.37114549  0.37432771     0.19000
C2490       C  0.02712656  0.35319658  0.38573069    -0.19000
C2491       C  0.00579674  0.35349463  0.39204044    -0.11300
C2492       C  0.99485181  0.37183290  0.38707306     0.21300
C2493       C  0.00559816  0.38952857  0.37380296    -0.20700
C2494       C  0.02704470  0.38927425  0.36765151    -0.11500
C2495       C  0.97237716  0.37286955  0.39610622    -0.15700
C2496       C  0.96390471  0.36165261  0.42402148    -0.29500
C2497       C  0.06107275  0.36999346  0.37010503    -0.03800
C2498       C  0.07432905  0.38648236  0.36790453    -0.40300
H2499       H  0.03512410  0.33889508  0.39042957     0.12400
H2500       H  0.99792862  0.33931194  0.40083245     0.12100
H2501       H  0.99746717  0.40374478  0.36909843     0.11500
H2502       H  0.03473212  0.40328795  0.35774512     0.11800
H2503       H  0.96301474  0.38392195  0.38127451     0.14500
H2504       H  0.97368800  0.35174976  0.44051811     0.13300
H2505       H  0.06746831  0.35461027  0.37087920     0.10900
H2506       H  0.06861506  0.40209745  0.36810371     0.13000
C2507       C  0.87850435  0.36484725  0.73310849     0.19000
C2508       C  0.86196799  0.36124061  0.70836042    -0.19000
C2509       C  0.86448612  0.36451570  0.67022750    -0.11300
C2510       C  0.88368078  0.37168467  0.65607172     0.21300
C2511       C  0.90004996  0.37570868  0.68100067    -0.20700
C2512       C  0.89753991  0.37238891  0.71904446    -0.11500
C2513       C  0.88811374  0.37363445  0.61572418    -0.15700
C2514       C  0.87424685  0.37033977  0.58815963    -0.29500
C2515       C  0.87480144  0.36189141  0.77344105    -0.03800
C2516       C  0.88988648  0.36036348  0.79921874    -0.40300
H2517       H  0.84704772  0.35568935  0.71855855     0.12400
H2518       H  0.85144530  0.36102935  0.65227521     0.12100
H2519       H  0.91499591  0.38127925  0.67095556     0.11500
H2520       H  0.91047502  0.37608139  0.73716857     0.11800
H2521       H  0.90424812  0.37653253  0.60836427     0.14500
H2522       H  0.85793895  0.36773499  0.59400486     0.13300
H2523       H  0.85872570  0.36140896  0.78233277     0.10900
H2524       H  0.90603660  0.35997027  0.79117312     0.13000
C2525       C  0.88929556  0.36328914  0.23411696     0.19000
C2526       C  0.87502919  0.37234310  0.20992383    -0.19000
C2527       C  0.87812970  0.37221769  0.17164579    -0.11300
C2528       C  0.89558208  0.36284837  0.15668557     0.21300
C2529       C  0.91009849  0.35416574  0.18081323    -0.20700
C2530       C  0.90697281  0.35423222  0.21917952    -0.11500
C2531       C  0.89935332  0.36201815  0.11622807    -0.15700
C2532       C  0.88424053  0.36277536  0.09042517    -0.29500
C2533       C  0.88452698  0.36327959  0.27433469    -0.03800
C2534       C  0.89741456  0.35745649  0.30173469    -0.40300
H2535       H  0.86134624  0.37955626  0.22068584     0.12400
H2536       H  0.86694245  0.37966126  0.15405410     0.12100
H2537       H  0.92374067  0.34696101  0.16987304     0.11500
H2538       H  0.91827054  0.34689969  0.23662996     0.11800
H2539       H  0.91519054  0.35956142  0.10749184     0.14500
H2540       H  0.86816721  0.36411603  0.09851705     0.13300
H2541       H  0.86927664  0.36862319  0.28176661     0.10900
H2542       H  0.91297955  0.35255417  0.29593489     0.13000
C2543       C  0.90442268  0.23183319  0.59043926     0.19000
C2544       C  0.90451149  0.23486427  0.55178401    -0.19000
C2545       C  0.90378781  0.25484145  0.53668712    -0.11300
C2546       C  0.90346257  0.27216772  0.56012303     0.21300
C2547       C  0.90366772  0.26914238  0.59872869    -0.20700
C2548       C  0.90391293  0.24917828  0.61380356    -0.11500
C2549       C  0.90420991  0.29361681  0.54537163    -0.15700
C2550       C  0.89430941  0.29950765  0.51429095    -0.29500
C2551       C  0.90552340  0.21048997  0.60556245    -0.03800
C2552       C  0.89588890  0.20437170  0.63699838    -0.40300
H2553       H  0.90507188  0.22172279  0.53324279     0.12400
H2554       H  0.90409047  0.25675050  0.50681463     0.12100
H2555       H  0.90364764  0.28230307  0.61729119     0.11500
H2556       H  0.90426499  0.24737773  0.64368753     0.11800
H2557       H  0.91211551  0.30533326  0.56223287     0.14500
H2558       H  0.88467029  0.28843094  0.49898359     0.13300
H2559       H  0.91302927  0.19898019  0.58866540     0.10900
H2560       H  0.88636551  0.21508418  0.65205685     0.13000
loop_ 
_geom_bond_atom_site_label_1 
_geom_bond_atom_site_label_2 
_geom_bond_distance 
_geom_bond_site_symmetry_2 
_ccdc_geom_bond_type 
O1           Ni7   1.912       .  S
O1           C22   1.270       .  A
O2          Ni25   1.920       .  S
O2           C11   1.271       .  A
O3           Ni7   1.904       .  S
O3          Ni25   1.919       .  S
O3          Ni19   1.927       .  S
O3           H26   0.966       .  S
C4           O21   1.278       .  A
C4           O13   1.277       .  A
C4         C2514   1.478       .  S
O5          Ni24   1.929       .  S
O5           C11   1.271       .  A
O6          Ni24   1.909       .  S
O6            C8   1.269       .  A
Ni7          O10   1.920       .  S
Ni7          O12   1.893       .  S
C8           O18   1.271       .  A
C8         C2550   1.478       .  S
O9          Ni25   1.908       .  S
O9           C15   1.267       .  A
O10          C15   1.271       .  A
C11        C2496   1.479       .  S
O12          C14   1.268       .  A
O13         Ni24   1.913       .  S
C14          O20   1.282       .  A
C14        C2480   1.477       .  S
C15        C2534   1.476       .  S
H16          O17   0.966       .  S
O17         Ni25   1.902       .  S
O17         Ni19   1.902       .  S
O17         Ni24   1.901       .  S
O18         Ni19   1.930       .  S
Ni19         O23   1.918       .  S
Ni19         O21   1.927       .  S
O20         Ni25   1.966       .  S
C22          O23   1.270       .  A
C22        C2460   1.483       .  S
O27         Ni33   1.917       .  S
O27          C48   1.268       .  A
O28         Ni51   1.904       .  S
O28          C37   1.267       .  A
O29         Ni33   1.913       .  S
O29         Ni51   1.909       .  S
O29         Ni45   1.917       .  S
O29          H52   0.966       .  S
C30          O47   1.277       .  A
C30          O39   1.277       .  A
C30        C2532   1.474       .  S
O31         Ni50   1.942       .  S
O31          C37   1.276       .  A
O32         Ni50   1.921       .  S
O32          C34   1.273       .  A
Ni33         O36   1.914       .  S
Ni33         O38   1.906       .  S
C34          O44   1.271       .  A
C34        C2442   1.483   1_556  S
O35         Ni51   1.920       .  S
O35          C41   1.275       .  A
O36          C41   1.274       .  A
C37        C2424   1.482       .  S
O38          C40   1.269       .  A
O39         Ni50   1.918   1_554  S
C40          O46   1.272       .  A
C40        C2408   1.486       .  S
C41        C2516   1.477       .  S
H42          O43   0.966       .  S
O43         Ni51   1.907       .  S
O43         Ni45   1.907       .  S
O43         Ni50   1.912       .  S
O44         Ni45   1.924       .  S
Ni45         O49   1.920       .  S
Ni45         O47   1.918   1_556  S
O46         Ni51   1.935       .  S
C48          O49   1.268       .  A
C48        C2388   1.480       .  S
O53         Ni59   1.907       .  S
O53          C74   1.268       .  A
O54         Ni77   1.919       .  S
O54          C63   1.267       .  A
O55         Ni59   1.919       .  S
O55         Ni77   1.924       .  S
O55         Ni71   1.940       .  S
O55          H78   0.966       .  S
C56          O73   1.278       .  A
C56          O65   1.275       .  A
C56        C2352   1.479       .  S
O57         Ni76   1.920       .  S
O57          C63   1.268       .  A
O58         Ni76   1.898       .  S
O58          C60   1.265       .  A
Ni59         O62   1.922       .  S
Ni59         O64   1.902       .  S
C60          O70   1.277       .  A
C60        C2444   1.478       .  S
O61         Ni77   1.907       .  S
O61          C67   1.265       .  A
O62          C67   1.269       .  A
C63        C2334   1.483       .  S
O64          C66   1.270       .  A
O65         Ni76   1.910       .  S
C66          O72   1.281       .  A
C66        C2316   1.480       .  S
C67        C2372   1.477       .  S
H68          O69   0.966       .  S
O69         Ni77   1.900       .  S
O69         Ni71   1.910       .  S
O69         Ni76   1.903       .  S
O70         Ni71   1.947       .  S
Ni71         O75   1.928       .  S
Ni71         O73   1.926       .  S
O72         Ni77   1.957       .  S
C74          O75   1.273       .  A
C74        C2298   1.485       .  S
O79         Ni85   1.904       .  S
O79         C100   1.268       .  A
O80        Ni103   1.912       .  S
O80          C89   1.268       .  A
O81         Ni85   1.911       .  S
O81        Ni103   1.917       .  S
O81         Ni97   1.937       .  S
O81         H104   0.966       .  S
C82          O99   1.277       .  A
C82          O91   1.277       .  A
C82        C2370   1.476       .  S
O83        Ni102   1.934       .  S
O83          C89   1.274       .  A
O84        Ni102   1.912       .  S
O84          C86   1.270       .  A
Ni85         O88   1.919       .  S
Ni85         O90   1.897       .  S
C86          O96   1.271       .  A
C86        C2552   1.474       .  S
O87        Ni103   1.911       .  S
O87          C93   1.266       .  A
O88          C93   1.268       .  A
C89        C2282   1.483       .  S
O90          C92   1.270       .  A
O91        Ni102   1.916       .  S
C92          O98   1.283       .  A
C92        C2262   1.475       .  S
C93        C2354   1.477       .  S
H94          O95   0.966       .  S
O95        Ni103   1.898       .  S
O95         Ni97   1.901       .  S
O95        Ni102   1.908       .  S
O96         Ni97   1.925       .  S
Ni97        O101   1.923       .  S
Ni97         O99   1.922       .  S
O98        Ni103   1.958       .  S
C100        O101   1.270       .  A
C100       C2244   1.483       .  S
O105       Ni111   1.941       .  S
O105        C126   1.277       .  A
O106       Ni129   1.918       .  S
O106        C115   1.269       .  A
O107       Ni111   1.904       .  S
O107       Ni129   1.903       .  S
O107       Ni123   1.907       .  S
O107        H130   0.966       .  S
C108        O125   1.274       .  A
C108        O117   1.276       .  A
C108       C2190   1.473       .  S
O109       Ni128   1.917       .  S
O109        C115   1.269       .  A
O110       Ni128   1.906       .  S
O110        C112   1.269       .  A
Ni111       O114   1.916       .  S
Ni111       O116   1.917       .  S
C112        O122   1.270       .  A
C112       C2154   1.482       .  S
O113       Ni129   1.925       .  S
O113        C119   1.279       .  A
O114        C119   1.278       .  A
C115       C2138   1.479       .  S
O116        C118   1.272       .  A
O117       Ni128   1.922   1_556  S
C118        O124   1.272       .  A
C118       C2226   1.480       .  S
C119       C2208   1.475       .  S
H120        O121   0.966       .  S
O121       Ni129   1.914       .  S
O121       Ni123   1.902       .  S
O121       Ni128   1.910       .  S
O122       Ni123   1.932       .  S
Ni123       O127   1.900       .  S
Ni123       O125   1.910   1_554  S
O124       Ni129   1.930       .  S
C126        O127   1.265       .  A
C126       C2172   1.478       .  S
O131       Ni137   1.929       .  S
O131        C152   1.272       .  A
O132       Ni155   1.914       .  S
O132        C141   1.270       .  A
O133       Ni137   1.894       .  S
O133       Ni155   1.898       .  S
O133       Ni149   1.904       .  S
O133        H156   0.966       .  S
C134        O151   1.272       .  A
C134        O143   1.276       .  A
C134       C2210   1.478       .  S
O135       Ni154   1.924       .  S
O135        C141   1.273       .  A
O136       Ni154   1.903       .  S
O136        C138   1.269       .  A
Ni137       O140   1.909       .  S
Ni137       O142   1.914       .  S
C138        O148   1.275       .  A
C138       C2082   1.486       .  S
O139       Ni155   1.928       .  S
O139        C145   1.278       .  A
O140        C145   1.278       .  A
C141       C2064   1.480       .  S
O142        C144   1.270       .  A
O143       Ni154   1.926       .  S
C144        O150   1.274       .  A
C144       C2118   1.483       .  S
C145       C2192   1.475       .  S
H146        O147   0.966       .  S
O147       Ni155   1.915       .  S
O147       Ni149   1.911       .  S
O147       Ni154   1.904       .  S
O148       Ni149   1.948       .  S
Ni149       O153   1.912       .  S
Ni149       O151   1.910       .  S
O150       Ni155   1.937       .  S
C152        O153   1.270       .  A
C152       C2100   1.476       .  S
O157       Ni163   1.926       .  S
O157        C178   1.271       .  A
O158       Ni181   1.923       .  S
O158        C167   1.273       .  A
O159       Ni163   1.891       .  S
O159       Ni181   1.899       .  S
O159       Ni175   1.908       .  S
O159        H182   0.966       .  S
C160        O177   1.274       .  A
C160        O169   1.275       .  A
C160       C2028   1.480       .  S
O161       Ni180   1.922       .  S
O161        C167   1.271       .  A
O162       Ni180   1.906       .  S
O162        C164   1.270       .  A
Ni163       O166   1.907       .  S
Ni163       O168   1.912       .  S
C164        O174   1.275       .  A
C164       C2498   1.485       .  S
O165       Ni181   1.939       .  S
O165        C171   1.283       .  A
O166        C171   1.278       .  A
C167       C1992   1.484       .  S
O168        C170   1.270       .  A
O169       Ni180   1.921       .  S
C170        O176   1.274       .  A
C170       C2228   1.484       .  S
C171       C2048   1.479       .  S
H172        O173   0.966       .  S
O173       Ni181   1.920       .  S
O173       Ni175   1.914       .  S
O173       Ni180   1.906       .  S
O174       Ni175   1.944       .  S
Ni175       O179   1.919       .  S
Ni175       O177   1.916       .  S
O176       Ni181   1.938       .  S
C178        O179   1.271       .  A
C178       C2012   1.476       .  S
O183       Ni189   1.930       .  S
O183        C204   1.273       .  A
O184       Ni207   1.924       .  S
O184        C193   1.272       .  A
O185       Ni189   1.910       .  S
O185       Ni207   1.905       .  S
O185       Ni201   1.901       .  S
O185        H208   0.966       .  S
C186        O203   1.266       .  A
C186        O195   1.270       .  A
C186       C2046   1.477       .  S
O187       Ni206   1.910       .  S
O187        C193   1.269       .  A
O188       Ni206   1.899       .  S
O188        C190   1.270       .  A
Ni189       O192   1.910       .  S
Ni189       O194   1.915       .  S
C190        O200   1.284       .  A
C190       C2426   1.479       .  S
O191       Ni207   1.927       .  S
O191        C197   1.278       .  A
O192        C197   1.275       .  A
C193       C1956   1.482       .  S
O194        C196   1.271       .  A
O195       Ni206   1.925       .  S
C196        O202   1.273       .  A
C196       C2120   1.482       .  S
C197       C2030   1.478       .  S
H198        O199   0.966       .  S
O199       Ni207   1.936       .  S
O199       Ni201   1.916       .  S
O199       Ni206   1.912       .  S
O200       Ni201   1.967       .  S
Ni201       O205   1.911       .  S
Ni201       O203   1.910       .  S
O202       Ni207   1.933       .  S
C204        O205   1.268       .  A
C204       C1974   1.479       .  S
O209       Ni215   1.914       .  S
O209        C230   1.271       .  A
O210       Ni233   1.908       .  S
O210        C219   1.267       .  A
O211       Ni215   1.914       .  S
O211       Ni233   1.911       .  S
O211       Ni227   1.926       .  S
O211        H234   0.966       .  S
C212        O229   1.278       .  A
C212        O221   1.278       .  A
C212       C1904   1.477       .  S
O213       Ni232   1.936       .  S
O213        C219   1.274       .  A
O214       Ni232   1.910       .  S
O214        C216   1.270       .  A
Ni215       O218   1.926       .  S
Ni215       O220   1.906       .  S
C216        O226   1.275       .  A
C216       C1938   1.483       .  S
O217       Ni233   1.910       .  S
O217        C223   1.269       .  A
O218        C223   1.271       .  A
C219       C1884   1.481       .  S
O220        C222   1.271       .  A
O221       Ni232   1.917       .  S
C222        O228   1.277       .  A
C222       C2010   1.482       .  S
C223       C1922   1.477       .  S
H224        O225   0.966       .  S
O225       Ni233   1.903       .  S
O225       Ni227   1.900       .  S
O225       Ni232   1.902       .  S
O226       Ni227   1.941       .  S
Ni227       O231   1.918       .  S
Ni227       O229   1.925       .  S
O228       Ni233   1.951       .  S
C230        O231   1.272       .  A
C230       C1868   1.481       .  S
O235       Ni241   1.916       .  S
O235        C256   1.270       .  A
O236       Ni259   1.906       .  S
O236        C245   1.265       .  A
O237       Ni241   1.918       .  S
O237       Ni259   1.914       .  S
O237       Ni253   1.925       .  S
O237        H260   0.966       .  S
C238        O255   1.279   1_554  A
C238        O247   1.276       .  A
C238       C1920   1.480       .  S
O239       Ni258   1.938       .  S
O239        C245   1.274       .  A
O240       Ni258   1.917       .  S
O240        C242   1.273       .  A
Ni241       O244   1.928       .  S
Ni241       O246   1.911       .  S
C242        O252   1.276       .  A
C242       C1848   1.491       .  S
O243       Ni259   1.910       .  S
O243        C249   1.270       .  A
O244        C249   1.273       .  A
C245       C1830   1.482       .  S
O246        C248   1.269       .  A
O247       Ni258   1.909   1_554  S
C248        O254   1.273       .  A
C248       C1976   1.478       .  S
C249       C1902   1.478       .  S
H250        O251   0.966       .  S
O251       Ni259   1.906       .  S
O251       Ni253   1.911       .  S
O251       Ni258   1.910       .  S
O252       Ni253   1.939       .  S
Ni253       O257   1.928       .  S
Ni253       O255   1.931       .  S
O254       Ni259   1.942       .  S
C256        O257   1.274       .  A
C256       C1814   1.486       .  S
O261       Ni267   1.902       .  S
O261        C282   1.265       .  A
O262       Ni285   1.906       .  S
O262        C271   1.268       .  A
O263       Ni267   1.908       .  S
O263       Ni285   1.899       .  S
O263       Ni279   1.938       .  S
O263        H286   0.966       .  S
C264        O281   1.283       .  A
C264        O273   1.276       .  A
C264       C1776   1.486       .  S
O265       Ni284   1.935       .  S
O265        C271   1.275       .  A
O266       Ni284   1.914       .  S
O266        C268   1.271       .  A
Ni267       O270   1.921       .  S
Ni267       O272   1.916       .  S
C268        O278   1.277       .  A
C268       C1850   1.485       .  S
O269       Ni285   1.950       .  S
O269        C275   1.284       .  A
O270        C275   1.277       .  A
C271       C1742   1.478       .  S
O272        C274   1.269       .  A
O273       Ni284   1.923       .  S
C274        O280   1.270       .  A
C274       C1758   1.486       .  S
C275       C1794   1.488       .  S
H276        O277   0.966       .  S
O277       Ni285   1.931       .  S
O277       Ni279   1.918       .  S
O277       Ni284   1.900       .  S
O278       Ni279   1.941       .  S
Ni279       O283   1.935       .  S
Ni279       O281   1.945       .  S
O280       Ni285   1.929       .  S
C282        O283   1.272       .  A
C282       C1722   1.483       .  S
O287       Ni293   1.906       .  S
O287        C308   1.267       .  A
O288       Ni311   1.924       .  S
O288        C297   1.274       .  A
O289       Ni293   1.897       .  S
O289       Ni311   1.900       .  S
O289       Ni305   1.937       .  S
O289        H312   0.966       .  S
C290        O307   1.287       .  A
C290        O299   1.278       .  A
C290       C1796   1.488       .  S
O291       Ni310   1.930       .  S
O291        C297   1.274       .  A
O292       Ni310   1.921       .  S
O292        C294   1.271       .  A
Ni293       O296   1.920       .  S
Ni293       O298   1.910       .  S
C294        O304   1.271       .  A
C294       C1940   1.482       .  S
O295       Ni311   1.949       .  S
O295        C301   1.286       .  A
O296        C301   1.277       .  A
C297       C1686   1.481       .  S
O298        C300   1.270       .  A
O299       Ni310   1.922       .  S
C300        O306   1.273       .  A
C300       C1704   1.487       .  S
C301       C1778   1.486       .  S
H302        O303   0.966       .  S
O303       Ni311   1.931       .  S
O303       Ni305   1.901       .  S
O303       Ni310   1.892       .  S
O304       Ni305   1.928       .  S
Ni305       O309   1.925       .  S
Ni305       O307   1.957       .  S
O306       Ni311   1.936       .  S
C308        O309   1.270       .  A
C308       C1668   1.478       .  S
O313       Ni319   1.941       .  S
O313        C334   1.277       .  A
O314       Ni337   1.940       .  S
O314        C323   1.274       .  A
O315       Ni319   1.905       .  S
O315       Ni337   1.913       .  S
O315       Ni331   1.929       .  S
O315        H338   0.966       .  S
C316        O333   1.285       .  A
C316        O325   1.275       .  A
C316       C1614   1.485       .  S
O317       Ni336   1.904       .  S
O317        C323   1.266       .  A
O318       Ni336   1.915       .  S
O318        C320   1.270       .  A
Ni319       O322   1.921       .  S
Ni319       O324   1.926       .  S
C320        O330   1.270       .  A
C320       C1596   1.487       .  S
O321       Ni337   1.950       .  S
O321        C327   1.285       .  A
O322        C327   1.276       .  A
C323       C1560   1.487       .  S
O324        C326   1.276       .  A
O325       Ni336   1.916   1_556  S
C326        O332   1.274       .  A
C326       C1650   1.489       .  S
C327       C1634   1.487       .  S
H328        O329   0.966       .  S
O329       Ni337   1.936       .  S
O329       Ni331   1.900       .  S
O329       Ni336   1.904       .  S
O330       Ni331   1.929       .  S
Ni331       O335   1.906       .  S
Ni331       O333   1.952   1_554  S
O332       Ni337   1.931       .  S
C334        O335   1.268       .  A
C334       C1578   1.484       .  S
O339       Ni345   1.933       .  S
O339        C360   1.276       .  A
O340       Ni363   1.933       .  S
O340        C349   1.273       .  A
O341       Ni345   1.897       .  S
O341       Ni363   1.909       .  S
O341       Ni357   1.932       .  S
O341        H364   0.966       .  S
C342        O359   1.285       .  A
C342        O351   1.278       .  A
C342       C1632   1.488       .  S
O343       Ni362   1.905       .  S
O343        C349   1.266       .  A
O344       Ni362   1.910       .  S
O344        C346   1.268       .  A
Ni345       O348   1.919       .  S
Ni345       O350   1.921       .  S
C346        O356   1.271       .  A
C346       C1524   1.485       .  S
O347       Ni363   1.949       .  S
O347        C353   1.284       .  A
O348        C353   1.276       .  A
C349       C1488   1.482       .  S
O350        C352   1.274       .  A
O351       Ni362   1.922       .  S
C352        O358   1.276       .  A
C352       C1542   1.485       .  S
C353       C1616   1.485       .  S
H354        O355   0.966       .  S
O355       Ni363   1.933       .  S
O355       Ni357   1.897       .  S
O355       Ni362   1.900       .  S
O356       Ni357   1.932       .  S
Ni357       O361   1.908       .  S
Ni357       O359   1.950       .  S
O358       Ni363   1.936       .  S
C360        O361   1.270       .  A
C360       C1506   1.477       .  S
O365       Ni371   1.939       .  S
O365        C386   1.273       .  A
O366       Ni389   1.930       .  S
O366        C375   1.273       .  A
O367       Ni371   1.909       .  S
O367       Ni389   1.914       .  S
O367       Ni383   1.901       .  S
O367        H390   0.966       .  S
C368        O385   1.266       .  A
C368        O377   1.267       .  A
C368       C1452   1.479       .  S
O369       Ni388   1.901       .  S
O369        C375   1.267       .  A
O370       Ni388   1.907       .  S
O370        C372   1.272       .  A
Ni371       O374   1.923       .  S
Ni371       O376   1.906       .  S
C372        O382   1.277       .  A
C372       C1886   1.479       .  S
O373       Ni389   1.913       .  S
O373        C379   1.274       .  A
O374        C379   1.277       .  A
C375       C1434   1.486       .  S
O376        C378   1.269       .  A
O377       Ni388   1.919       .  S
C378        O384   1.278       .  A
C378       C1652   1.484       .  S
C379       C1470   1.477       .  S
H380        O381   0.966       .  S
O381       Ni389   1.937       .  S
O381       Ni383   1.919       .  S
O381       Ni388   1.926       .  S
O382       Ni383   1.949       .  S
Ni383       O387   1.906       .  S
Ni383       O385   1.914       .  S
O384       Ni389   1.951       .  S
C386        O387   1.265       .  A
C386       C2478   1.483       .  S
O391       Ni397   1.935       .  S
O391        C412   1.275       .  A
O392       Ni415   1.922       .  S
O392        C401   1.272       .  A
O393       Ni397   1.903       .  S
O393       Ni415   1.899       .  S
O393       Ni409   1.892       .  S
O393        H416   0.966       .  S
C394        O411   1.264       .  A
C394        O403   1.270       .  A
C394       C1472   1.475       .  S
O395       Ni414   1.910       .  S
O395        C401   1.270       .  A
O396       Ni414   1.897       .  S
O396        C398   1.270       .  A
Ni397       O400   1.910       .  S
Ni397       O402   1.916       .  S
C398        O408   1.285       .  A
C398       C1832   1.480       .  S
O399       Ni415   1.930       .  S
O399        C405   1.281       .  A
O400        C405   1.277       .  A
C401       C1418   1.484       .  S
O402        C404   1.271       .  A
O403       Ni414   1.929       .  S
C404        O410   1.273       .  A
C404       C1544   1.482       .  S
C405       C1454   1.478       .  S
H406        O407   0.966       .  S
O407       Ni415   1.939       .  S
O407       Ni409   1.915       .  S
O407       Ni414   1.913       .  S
O408       Ni409   1.970       .  S
Ni409       O413   1.911       .  S
Ni409       O411   1.903       .  S
O410       Ni415   1.933       .  S
C412        O413   1.268       .  A
C412       C2406   1.485       .  S
O417       Ni423   1.932       .  S
O417        C438   1.272       .  A
O418       Ni441   1.931       .  S
O418        C427   1.274       .  A
O419       Ni423   1.892       .  S
O419       Ni441   1.906       .  S
O419       Ni435   1.908       .  S
O419        H442   0.966       .  S
C420        O437   1.275       .  A
C420        O429   1.276       .  A
C420       C1382   1.474       .  S
O421       Ni440   1.918       .  S
O421        C427   1.269       .  A
O422       Ni440   1.907       .  S
O422        C424   1.269       .  A
Ni423       O426   1.910   1_554  S
Ni423       O428   1.909       .  S
C424        O434   1.272       .  A
C424       C1346   1.483       .  S
O425       Ni441   1.926   1_556  S
O425        C431   1.279       .  A
O426        C431   1.278       .  A
C427       C1562   1.487       .  S
O428        C430   1.270       .  A
O429       Ni440   1.919       .  S
C430        O436   1.276       .  A
C430       C1398   1.485       .  S
C431       C1362   1.471       .  S
H432        O433   0.966       .  S
O433       Ni441   1.913       .  S
O433       Ni435   1.912       .  S
O433       Ni440   1.907       .  S
O434       Ni435   1.937       .  S
Ni435       O439   1.923       .  S
Ni435       O437   1.913       .  S
O436       Ni441   1.942       .  S
C438        O439   1.271       .  A
C438       C1326   1.483       .  S
O443       Ni449   1.932       .  S
O443        C464   1.272       .  A
O444       Ni467   1.924       .  S
O444        C453   1.271       .  A
O445       Ni449   1.896       .  S
O445       Ni467   1.907       .  S
O445       Ni461   1.911       .  S
O445        H468   0.966       .  S
C446        O463   1.276       .  A
C446        O455   1.276       .  A
C446       C1364   1.473       .  S
O447       Ni466   1.915       .  S
O447        C453   1.268       .  A
O448       Ni466   1.906       .  S
O448        C450   1.269       .  A
Ni449       O452   1.911       .  S
Ni449       O454   1.912       .  S
C450        O460   1.273       .  A
C450       C1290   1.485       .  S
O451       Ni467   1.929       .  S
O451        C457   1.279       .  A
O452        C457   1.278       .  A
C453       C1490   1.481       .  S
O454        C456   1.270       .  A
O455       Ni466   1.909       .  S
C456        O462   1.273       .  A
C456       C1310   1.479       .  S
C457       C1380   1.477       .  S
H458        O459   0.966       .  S
O459       Ni467   1.912       .  S
O459       Ni461   1.909       .  S
O459       Ni466   1.901       .  S
O460       Ni461   1.936       .  S
Ni461       O465   1.922       .  S
Ni461       O463   1.918       .  S
O462       Ni467   1.934       .  S
C464        O465   1.271       .  A
C464       C1272   1.483       .  S
O469       Ni475   1.944       .  S
O469        C490   1.275       .  A
O470       Ni493   1.921       .  S
O470        C479   1.272       .  A
O471       Ni475   1.915       .  S
O471       Ni493   1.910       .  S
O471       Ni487   1.901       .  S
O471        H494   0.966       .  S
C472        O489   1.267       .  A
C472        O481   1.274       .  A
C472       C1254   1.473       .  S
O473       Ni492   1.917       .  S
O473        C479   1.271       .  A
O474       Ni492   1.907       .  S
O474        C476   1.269       .  A
Ni475       O478   1.915       .  S
Ni475       O480   1.915       .  S
C476        O486   1.275       .  A
C476       C1740   1.480       .  S
O477       Ni493   1.920       .  S
O477        C483   1.276       .  A
O478        C483   1.276       .  A
C479       C1436   1.485       .  S
O480        C482   1.272       .  A
O481       Ni492   1.929       .  S
C482        O488   1.273       .  A
C482       C1308   1.482       .  S
C483       C1236   1.475       .  S
H484        O485   0.966       .  S
O485       Ni493   1.917       .  S
O485       Ni487   1.910       .  S
O485       Ni492   1.915       .  S
O486       Ni487   1.947       .  S
Ni487       O491   1.898       .  S
Ni487       O489   1.901       .  S
O488       Ni493   1.932       .  S
C490        O491   1.263       .  A
C490       C2318   1.479       .  S
O495       Ni501   1.940       .  S
O495        C516   1.275       .  A
O496       Ni519   1.919       .  S
O496        C505   1.271       .  A
O497       Ni501   1.905       .  S
O497       Ni519   1.903       .  S
O497       Ni513   1.903       .  S
O497        H520   0.966       .  S
C498        O515   1.271       .  A
C498        O507   1.276       .  A
C498       C1238   1.474       .  S
O499       Ni518   1.922       .  S
O499        C505   1.271       .  A
O500       Ni518   1.911       .  S
O500        C502   1.269       .  A
Ni501       O504   1.912       .  S
Ni501       O506   1.915       .  S
C502        O512   1.273       .  A
C502       C1688   1.487       .  S
O503       Ni519   1.925       .  S
O503        C509   1.279       .  A
O504        C509   1.278       .  A
C505       C1416   1.481       .  S
O506        C508   1.271       .  A
O507       Ni518   1.927       .  S
C508        O514   1.274       .  A
C508       C1400   1.483       .  S
C509       C1256   1.473       .  S
H510        O511   0.966       .  S
O511       Ni519   1.913       .  S
O511       Ni513   1.905       .  S
O511       Ni518   1.912       .  S
O512       Ni513   1.940       .  S
Ni513       O517   1.898       .  S
Ni513       O515   1.906       .  S
O514       Ni519   1.935       .  S
C516        O517   1.265       .  A
C516       C2264   1.476       .  S
O521       Ni527   1.920       .  S
O521        C542   1.271       .  A
O522       Ni545   1.913       .  S
O522        C531   1.270       .  A
O523       Ni527   1.905       .  S
O523       Ni545   1.903       .  S
O523       Ni539   1.923       .  S
O523        H546   0.966       .  S
C524        O541   1.286       .  A
C524        O533   1.276       .  A
C524       C1200   1.473       .  S
O525       Ni544   1.934       .  S
O525        C531   1.275       .  A
O526       Ni544   1.917       .  S
O526        C528   1.271       .  A
Ni527       O530   1.931       .  S
Ni527       O532   1.908       .  S
C528        O538   1.274       .  A
C528       C1218   1.482       .  S
O529       Ni545   1.914       .  S
O529        C535   1.275       .  A
O530        C535   1.278       .  A
C531       C1166   1.482       .  S
O532        C534   1.269       .  A
O533       Ni544   1.909       .  S
C534        O540   1.274       .  A
C534       C1328   1.488       .  S
C535       C1182   1.479       .  S
H536        O537   0.966       .  S
O537       Ni545   1.906       .  S
O537       Ni539   1.901       .  S
O537       Ni544   1.892       .  S
O538       Ni539   1.935       .  S
Ni539       O543   1.928       .  S
Ni539       O541   1.948       .  S
O540       Ni545   1.943       .  S
C542        O543   1.274       .  A
C542       C2300   1.486       .  S
O547       Ni553   1.915       .  S
O547        C568   1.268       .  A
O548       Ni571   1.904       .  S
O548        C557   1.268       .  A
O549       Ni553   1.910       .  S
O549       Ni571   1.899       .  S
O549       Ni565   1.913       .  S
O549        H572   0.967       .  S
C550        O567   1.276       .  A
C550        O559   1.278       .  A
C550       C1184   1.479       .  S
O551       Ni570   1.942       .  S
O551        C557   1.278       .  A
O552       Ni570   1.920       .  S
O552        C554   1.273       .  A
Ni553       O556   1.918       .  S
Ni553       O558   1.911       .  S
C554        O564   1.277       .  A
C554       C1148   1.490       .  S
O555       Ni571   1.928       .  S
O555        C561   1.279       .  A
O556        C561   1.276       .  A
C557       C1128   1.479       .  S
O558        C560   1.269       .  A
O559       Ni570   1.924       .  S
C560        O566   1.273       .  A
C560       C1274   1.488       .  S
C561       C1202   1.483       .  S
H562        O563   0.966       .  S
O563       Ni571   1.923       .  S
O563       Ni565   1.908       .  S
O563       Ni570   1.908       .  S
O564       Ni565   1.943       .  S
Ni565       O569   1.918       .  S
Ni565       O567   1.921       .  S
O566       Ni571   1.940       .  S
C568        O569   1.269       .  A
C568       C2246   1.478       .  S
O573       Ni579   1.918       .  S
O573        C594   1.269       .  A
O574       Ni597   1.920       .  S
O574        C583   1.271       .  A
O575       Ni579   1.905       .  S
O575       Ni597   1.907       .  S
O575       Ni591   1.917       .  S
O575        H598   0.966       .  S
C576        O593   1.282       .  A
C576        O585   1.278       .  A
C576       C1110   1.479       .  S
O577       Ni596   1.926       .  S
O577        C583   1.271       .  A
O578       Ni596   1.911       .  S
O578        C580   1.269       .  A
Ni579       O582   1.921       .  S
Ni579       O584   1.910       .  S
C580        O590   1.274       .  A
C580       C1220   1.486       .  S
O581       Ni597   1.920       .  S
O581        C587   1.278       .  A
O582        C587   1.277       .  A
C583       C2084   1.476       .  S
O584        C586   1.269       .  A
O585       Ni596   1.913       .  S
C586        O592   1.273       .  A
C586       C1508   1.482       .  S
C587       C1092   1.478       .  S
H588        O589   0.966       .  S
O589       Ni597   1.914       .  S
O589       Ni591   1.899       .  S
O589       Ni596   1.895       .  S
O590       Ni591   1.939       .  S
Ni591       O595   1.918       .  S
Ni591       O593   1.936       .  S
O592       Ni597   1.938       .  S
C594        O595   1.270       .  A
C594       C2462   1.478       .  S
O599       Ni605   1.917   1_556  S
O599        C620   1.272       .  A
O600       Ni623   1.916       .  S
O600        C609   1.272       .  A
O601       Ni605   1.906   1_556  S
O601       Ni623   1.916       .  S
O601       Ni617   1.933       .  S
O601        H624   0.966       .  S
C602        O619   1.281       .  A
C602        O611   1.277       .  A
C602       C1094   1.478       .  S
O603       Ni622   1.926       .  S
O603        C609   1.273       .  A
O604       Ni622   1.922       .  S
O604        C606   1.271       .  A
Ni605       O608   1.931       .  S
Ni605       O610   1.900   1_554  S
C606        O616   1.274       .  A
C606       C1146   1.491       .  S
O607       Ni623   1.910   1_554  S
O607        C613   1.268       .  A
O608        C613   1.272       .  A
C609       C2156   1.476       .  S
O610        C612   1.269       .  A
O611       Ni622   1.908       .  S
C612        O618   1.284       .  A
C612       C1580   1.482       .  S
C613       C1112   1.480       .  S
H614        O615   0.966       .  S
O615       Ni623   1.899       .  S
O615       Ni617   1.893       .  S
O615       Ni622   1.894       .  S
O616       Ni617   1.939       .  S
Ni617       O621   1.915       .  S
Ni617       O619   1.934       .  S
O618       Ni623   1.973       .  S
C620        O621   1.271       .  A
C620       C2390   1.481       .  S
O625       Ni631   1.919       .  S
O625        C646   1.267       .  A
O626       Ni649   1.919       .  S
O626        C635   1.269       .  A
O627       Ni631   1.916       .  S
O627       Ni649   1.917       .  S
O627       Ni643   1.913       .  S
O627        H650   0.966       .  S
C628        O645   1.273       .  A
C628        O637   1.276       .  A
C628       C1058   1.474       .  S
O629       Ni648   1.929       .  S
O629        C635   1.269       .  A
O630       Ni648   1.901       .  S
O630        C632   1.266       .  A
Ni631       O634   1.911       .  S
Ni631       O636   1.904       .  S
C632        O642   1.274       .  A
C632       C1076   1.477       .  S
O633       Ni649   1.916       .  S
O633        C639   1.273       .  A
O634        C639   1.274       .  A
C635       C1526   1.479       .  S
O636        C638   1.269       .  A
O637       Ni648   1.920       .  S
C638        O644   1.271       .  A
C638       C2102   1.480       .  S
C639       C1038   1.475       .  S
H640        O641   0.966       .  S
O641       Ni649   1.910       .  S
O641       Ni643   1.919       .  S
O641       Ni648   1.907       .  S
O642       Ni643   1.940       .  S
Ni643       O647   1.920       .  S
Ni643       O645   1.910       .  S
O644       Ni649   1.930       .  S
C646        O647   1.268       .  A
C646       C1866   1.481       .  S
O651       Ni657   1.910       .  S
O651        C672   1.262       .  A
O652       Ni675   1.919       .  S
O652        C661   1.270       .  A
O653       Ni657   1.899       .  S
O653       Ni675   1.905       .  S
O653       Ni669   1.913       .  S
O653        H676   0.966       .  S
C654        O671   1.276       .  A
C654        O663   1.278       .  A
C654       C1040   1.474       .  S
O655       Ni674   1.931       .  S
O655        C661   1.271       .  A
O656       Ni674   1.901       .  S
O656        C658   1.266       .  A
Ni657       O660   1.907   1_556  S
Ni657       O662   1.903       .  S
C658        O668   1.275       .  A
C658       C1022   1.475       .  S
O659       Ni675   1.925   1_554  S
O659        C665   1.277       .  A
O660        C665   1.276       .  A
C661       C1598   1.480       .  S
O662        C664   1.267       .  A
O663       Ni674   1.923       .  S
C664        O670   1.270       .  A
C664       C2174   1.481       .  S
C665       C1056   1.473       .  S
H666        O667   0.966       .  S
O667       Ni675   1.909       .  S
O667       Ni669   1.922       .  S
O667       Ni674   1.896       .  S
O668       Ni669   1.945       .  S
Ni669       O673   1.941       .  S
Ni669       O671   1.912       .  S
O670       Ni675   1.929       .  S
C672        O673   1.273       .  A
C672       C1812   1.477       .  S
O677       Ni683   1.912       .  S
O677        C698   1.271       .  A
O678       Ni701   1.920       .  S
O678        C687   1.270       .  A
O679       Ni683   1.908       .  S
O679       Ni701   1.915       .  S
O679       Ni695   1.929       .  S
O679        H702   0.966       .  S
C680        O697   1.280       .  A
C680        O689   1.277       .  A
C680       C1002   1.476       .  S
O681       Ni700   1.924       .  S
O681        C687   1.270       .  A
O682       Ni700   1.909       .  S
O682        C684   1.270       .  A
Ni683       O686   1.925       .  S
Ni683       O688   1.905       .  S
C684        O694   1.274       .  A
C684       C1074   1.486       .  S
O685       Ni701   1.913       .  S
O685        C691   1.270       .  A
O686        C691   1.272       .  A
C687       C1344   1.476       .  S
O688        C690   1.271       .  A
O689       Ni700   1.909       .  S
C690        O696   1.278       .  A
C690        C966   1.478       .  S
C691        C984   1.478       .  S
H692        O693   0.966       .  S
O693       Ni701   1.904       .  S
O693       Ni695   1.899       .  S
O693       Ni700   1.894       .  S
O694       Ni695   1.935       .  S
Ni695       O699   1.923       .  S
Ni695       O697   1.930       .  S
O696       Ni701   1.953       .  S
C698        O699   1.273       .  A
C698       C1724   1.483       .  S
O703       Ni709   1.913       .  S
O703        C724   1.268       .  A
O704       Ni727   1.912       .  S
O704        C713   1.267       .  A
O705       Ni709   1.914       .  S
O705       Ni727   1.917       .  S
O705       Ni721   1.922       .  S
O705        H728   0.966       .  S
C706        O723   1.280       .  A
C706        O715   1.277       .  A
C706        C986   1.479       .  S
O707       Ni726   1.931       .  S
O707        C713   1.272       .  A
O708       Ni726   1.909       .  S
O708        C710   1.271       .  A
Ni709       O712   1.918       .  S
Ni709       O714   1.899       .  S
C710        O720   1.273       .  A
C710       C1020   1.484       .  S
O711       Ni727   1.912       .  S
O711        C717   1.271       .  A
O712        C717   1.273       .  A
C713       C1292   1.482       .  S
O714        C716   1.267       .  A
O715       Ni726   1.911       .  S
C716        O722   1.272       .  A
C716        C948   1.479       .  S
C717       C1004   1.477       .  S
H718        O719   0.966       .  S
O719       Ni727   1.906       .  S
O719       Ni721   1.908       .  S
O719       Ni726   1.903       .  S
O720       Ni721   1.932       .  S
Ni721       O725   1.925       .  S
Ni721       O723   1.931       .  S
O722       Ni727   1.938       .  S
C724        O725   1.271       .  A
C724       C1670   1.481       .  S
O729       Ni735   1.933       .  S
O729        C750   1.272       .  A
O730       Ni753   1.925       .  S
O730        C739   1.272       .  A
O731       Ni735   1.917       .  S
O731       Ni753   1.919       .  S
O731       Ni747   1.916       .  S
O731        H754   0.966       .  S
C732        O749   1.265       .  A
C732        O741   1.269       .  A
C732        C914   1.477       .  S
O733       Ni752   1.905       .  S
O733        C739   1.269       .  A
O734       Ni752   1.909       .  S
O734        C736   1.272       .  A
Ni735       O738   1.926   1_554  S
Ni735       O740   1.907       .  S
C736        O746   1.277       .  A
C736       C1164   1.481       .  S
O737       Ni753   1.913   1_556  S
O737        C743   1.271       .  A
O738        C743   1.273       .  A
C739       C2136   1.483       .  S
O740        C742   1.270       .  A
O741       Ni752   1.924       .  S
C742        O748   1.280       .  A
C742        C930   1.480       .  S
C743        C894   1.479       .  S
H744        O745   0.966       .  S
O745       Ni753   1.928       .  S
O745       Ni747   1.909       .  S
O745       Ni752   1.927       .  S
O746       Ni747   1.948       .  S
Ni747       O751   1.898       .  S
Ni747       O749   1.909       .  S
O748       Ni753   1.957       .  S
C750        O751   1.263       .  A
C750        C968   1.477       .  S
O755       Ni761   1.925       .  S
O755        C776   1.270       .  A
O756       Ni779   1.919       .  S
O756        C765   1.271       .  A
O757       Ni761   1.895       .  S
O757       Ni779   1.898       .  S
O757       Ni773   1.910       .  S
O757        H780   0.966       .  S
C758        O775   1.275       .  A
C758        O767   1.278       .  A
C758        C896   1.480       .  S
O759       Ni778   1.918       .  S
O759        C765   1.270       .  A
O760       Ni778   1.909       .  S
O760        C762   1.268       .  A
Ni761       O764   1.907       .  S
Ni761       O766   1.911       .  S
C762        O772   1.272       .  A
C762       C1130   1.480       .  S
O763       Ni779   1.938       .  S
O763        C769   1.283       .  A
O764        C769   1.277       .  A
C765       C2066   1.478       .  S
O766        C768   1.269       .  A
O767       Ni778   1.926       .  S
C768        O774   1.272       .  A
C768        C876   1.481       .  S
C769        C912   1.477       .  S
H770        O771   0.965       .  S
O771       Ni779   1.917       .  S
O771       Ni773   1.905       .  S
O771       Ni778   1.903       .  S
O772       Ni773   1.937       .  S
Ni773       O777   1.913       .  S
Ni773       O775   1.915       .  S
O774       Ni779   1.935       .  S
C776        O777   1.270       .  A
C776        C950   1.472       .  S
O781       Ni787   1.933       .  S
O781        C802   1.273       .  A
O782       Ni805   1.938       .  S
O782        C791   1.274       .  A
O783       Ni787   1.889       .  S
O783       Ni805   1.906       .  S
O783       Ni799   1.910       .  S
O783        H806   0.966       .  S
C784        O801   1.277       .  A
C784        O793   1.276       .  A
C784        C860   1.477       .  S
O785       Ni804   1.914       .  S
O785        C791   1.265       .  A
O786       Ni804   1.894       .  S
O786        C788   1.267       .  A
Ni787       O790   1.914       .  S
Ni787       O792   1.909       .  S
C788        O798   1.273       .  A
C788       C2336   1.484       .  S
O789       Ni805   1.926       .  S
O789        C795   1.280       .  A
O790        C795   1.279       .  A
C791       C1994   1.479       .  S
O792        C794   1.270       .  A
O793       Ni804   1.911       .  S
C794        O800   1.275       .  A
C794        C878   1.481       .  S
C795        C840   1.475       .  S
H796        O797   0.966       .  S
O797       Ni805   1.914       .  S
O797       Ni799   1.912       .  S
O797       Ni804   1.897       .  S
O798       Ni799   1.940       .  S
Ni799       O803   1.924       .  S
Ni799       O801   1.922       .  S
O800       Ni805   1.937       .  S
C802        O803   1.273       .  A
C802       C1760   1.484       .  S
O807       Ni813   1.927       .  S
O807        C828   1.272       .  A
O808       Ni831   1.933       .  S
O808        C817   1.272       .  A
O809       Ni813   1.888       .  S
O809       Ni831   1.903       .  S
O809       Ni825   1.910       .  S
O809        H832   0.966       .  S
C810        O827   1.278       .  A
C810        O819   1.277       .  A
C810        C842   1.474       .  S
O811       Ni830   1.915       .  S
O811        C817   1.264       .  A
O812       Ni830   1.894       .  S
O812        C814   1.266       .  A
Ni813       O816   1.913       .  S
Ni813       O818   1.908       .  S
C814        O824   1.273       .  A
C814       C2280   1.486       .  S
O815       Ni831   1.927       .  S
O815        C821   1.281       .  A
O816        C821   1.279       .  A
C817       C1958   1.474       .  S
O818        C820   1.270       .  A
O819       Ni830   1.915       .  S
C820        O826   1.275       .  A
C820        C932   1.487       .  S
C821        C858   1.473       .  S
H822        O823   0.967       .  S
O823       Ni831   1.914       .  S
O823       Ni825   1.910       .  S
O823       Ni830   1.899       .  S
O824       Ni825   1.942       .  S
Ni825       O829   1.926       .  S
Ni825       O827   1.921       .  S
O826       Ni831   1.939       .  S
C828        O829   1.273       .  A
C828       C1706   1.480       .  S
C833        C841   1.481       .  S
C833        C834   1.403       .  A
C833        C838   1.405       .  A
C834        C835   1.396       .  A
C834        H843   1.084       .  S
C835        C836   1.407       .  A
C835        H844   1.079       .  S
C836        C839   1.484       .  S
C836        C837   1.404       .  A
C837        C838   1.395       .  A
C837        H845   1.084       .  S
C838        H846   1.081       .  S
C839        H847   1.087       .  S
C839        C840   1.348       .  D
C840        H848   1.083       .  S
C841        H849   1.087       .  S
C841        C842   1.349       .  D
C842        H850   1.084       .  S
C851        C859   1.477       .  S
C851        C852   1.402       .  A
C851        C856   1.405       .  A
C852        C853   1.394       .  A
C852        H861   1.084       .  S
C853        C854   1.405       .  A
C853        H862   1.081       .  S
C854        C857   1.480   1_554  S
C854        C855   1.404       .  A
C855        C856   1.397       .  A
C855        H863   1.083       .  S
C856        H864   1.082       .  S
C857        H865   1.087       .  S
C857        C858   1.348       .  D
C858        H866   1.085       .  S
C859        H867   1.087       .  S
C859        C860   1.348       .  D
C860        H868   1.085       .  S
C869        C877   1.486       .  S
C869        C870   1.406       .  A
C869        C874   1.404       .  A
C870        C871   1.401       .  A
C870        H879   1.083       .  S
C871        C872   1.405       .  A
C871        H880   1.082       .  S
C872        C875   1.486       .  S
C872        C873   1.406       .  A
C873        C874   1.401       .  A
C873        H881   1.083       .  S
C874        H882   1.082       .  S
C875        H883   1.088       .  S
C875        C876   1.350       .  D
C876        H884   1.086       .  S
C877        H885   1.088       .  S
C877        C878   1.350       .  D
C878        H886   1.086       .  S
C887        C895   1.485       .  S
C887        C888   1.404       .  A
C887        C892   1.405       .  A
C888        C889   1.397       .  A
C888        H897   1.083       .  S
C889        C890   1.406       .  A
C889        H898   1.080       .  S
C890        C893   1.487       .  S
C890        C891   1.406       .  A
C891        C892   1.398       .  A
C891        H899   1.084       .  S
C892        H900   1.081       .  S
C893        H901   1.087       .  S
C893        C894   1.351       .  D
C894        H902   1.083       .  S
C895        H903   1.087       .  S
C895        C896   1.350       .  D
C896        H904   1.084       .  S
C905        C913   1.486       .  S
C905        C906   1.407       .  A
C905        C910   1.407       .  A
C906        C907   1.397       .  A
C906        H915   1.083       .  S
C907        C908   1.402       .  A
C907        H916   1.082       .  S
C908        C911   1.479       .  S
C908        C909   1.403       .  A
C909        C910   1.397       .  A
C909        H917   1.084       .  S
C910        H918   1.079       .  S
C911        H919   1.087       .  S
C911        C912   1.349       .  D
C912        H920   1.085       .  S
C913        H921   1.087       .  S
C913        C914   1.350       .  D
C914        H922   1.083       .  S
C923        C931   1.492       .  S
C923        C924   1.406       .  A
C923        C928   1.406       .  A
C924        C925   1.400       .  A
C924        H933   1.084       .  S
C925        C926   1.406       .  A
C925        H934   1.081   1_556  S
C926        C929   1.496       .  S
C926        C927   1.409       .  A
C927        C928   1.405       .  A
C927        H935   1.083       .  S
C928        H936   1.082       .  S
C929        H937   1.088       .  S
C929        C930   1.351   1_556  D
C930        H938   1.084       .  S
C931        H939   1.087       .  S
C931        C932   1.354       .  D
C932        H940   1.085       .  S
C941        C949   1.483       .  S
C941        C942   1.402       .  A
C941        C946   1.405       .  A
C942        C943   1.400   1_545  A
C942        H951   1.083       .  S
C943        C944   1.410       .  A
C943        H952   1.079       .  S
C944        C947   1.490       .  S
C944        C945   1.405       .  A
C945        C946   1.396   1_565  A
C945        H953   1.083       .  S
C946        H954   1.083       .  S
C947        H955   1.087       .  S
C947        C948   1.349       .  D
C948        H956   1.083       .  S
C949        H957   1.087       .  S
C949        C950   1.344       .  D
C950        H958   1.086       .  S
C959        C967   1.484       .  S
C959        C960   1.403   1_545  A
C959        C964   1.407       .  A
C960        C961   1.399       .  A
C960        H969   1.083       .  S
C961        C962   1.407       .  A
C961        H970   1.082       .  S
C962        C965   1.485       .  S
C962        C963   1.403       .  A
C963        C964   1.400   1_565  A
C963        H971   1.083       .  S
C964        H972   1.082       .  S
C965        H973   1.087       .  S
C965        C966   1.346       .  D
C966        H974   1.086       .  S
C967        H975   1.087       .  S
C967        C968   1.344       .  D
C968        H976   1.086       .  S
C977        C985   1.484       .  S
C977        C978   1.405       .  A
C977        C982   1.405       .  A
C978        C979   1.396       .  A
C978        H987   1.084       .  S
C979        C980   1.405       .  A
C979        H988   1.080       .  S
C980        C983   1.484   1_556  S
C980        C981   1.406       .  A
C981        C982   1.397       .  A
C981        H989   1.084       .  S
C982        H990   1.081       .  S
C983        H991   1.087       .  S
C983        C984   1.351       .  D
C984        H992   1.083       .  S
C985        H993   1.087       .  S
C985        C986   1.351       .  D
C986        H994   1.084       .  S
C995       C1003   1.483       .  S
C995        C996   1.404       .  A
C995       C1000   1.405       .  A
C996        C997   1.396       .  A
C996       H1005   1.084       .  S
C997        C998   1.406       .  A
C997       H1006   1.080       .  S
C998       C1001   1.484       .  S
C998        C999   1.405       .  A
C999       C1000   1.396       .  A
C999       H1007   1.084       .  S
C1000      H1008   1.080       .  S
C1001      H1009   1.087       .  S
C1001      C1002   1.349       .  D
C1002      H1010   1.083       .  S
C1003      H1011   1.087       .  S
C1003      C1004   1.349       .  D
C1004      H1012   1.083       .  S
C1013      C1021   1.494       .  S
C1013      C1014   1.407       .  A
C1013      C1018   1.406       .  A
C1014      C1015   1.404       .  A
C1014      H1023   1.083       .  S
C1015      C1016   1.407       .  A
C1015      H1024   1.081       .  S
C1016      C1019   1.490       .  S
C1016      C1017   1.405       .  A
C1017      C1018   1.397       .  A
C1017      H1025   1.084       .  S
C1018      H1026   1.081       .  S
C1019      H1027   1.087       .  S
C1019      C1020   1.350       .  D
C1020      H1028   1.085       .  S
C1021      H1029   1.087       .  S
C1021      C1022   1.349       .  D
C1022      H1030   1.084       .  S
C1031      C1039   1.479       .  S
C1031      C1032   1.404       .  A
C1031      C1036   1.405       .  A
C1032      C1033   1.396       .  A
C1032      H1041   1.084       .  S
C1033      C1034   1.406       .  A
C1033      H1042   1.081       .  S
C1034      C1037   1.479       .  S
C1034      C1035   1.403       .  A
C1035      C1036   1.395       .  A
C1035      H1043   1.084       .  S
C1036      H1044   1.081       .  S
C1037      H1045   1.087       .  S
C1037      C1038   1.347       .  D
C1038      H1046   1.085       .  S
C1039      H1047   1.087       .  S
C1039      C1040   1.348       .  D
C1040      H1048   1.085       .  S
C1049      C1057   1.481       .  S
C1049      C1050   1.403       .  A
C1049      C1054   1.406       .  A
C1050      C1051   1.395       .  A
C1050      H1059   1.084       .  S
C1051      C1052   1.406       .  A
C1051      H1060   1.079       .  S
C1052      C1055   1.483       .  S
C1052      C1053   1.404       .  A
C1053      C1054   1.395       .  A
C1053      H1061   1.084       .  S
C1054      H1062   1.080       .  S
C1055      H1063   1.087       .  S
C1055      C1056   1.347       .  D
C1056      H1064   1.082       .  S
C1057      H1065   1.087       .  S
C1057      C1058   1.347       .  D
C1058      H1066   1.083       .  S
C1067      C1075   1.493       .  S
C1067      C1068   1.406       .  A
C1067      C1072   1.407       .  A
C1068      C1069   1.403       .  A
C1068      H1077   1.083       .  S
C1069      C1070   1.408       .  A
C1069      H1078   1.080       .  S
C1070      C1073   1.494       .  S
C1070      C1071   1.406       .  A
C1071      C1072   1.399       .  A
C1071      H1079   1.084       .  S
C1072      H1080   1.081       .  S
C1073      H1081   1.087       .  S
C1073      C1074   1.352       .  D
C1074      H1082   1.084       .  S
C1075      H1083   1.087       .  S
C1075      C1076   1.348       .  D
C1076      H1084   1.084       .  S
C1085      C1093   1.486       .  S
C1085      C1086   1.405       .  A
C1085      C1090   1.407       .  A
C1086      C1087   1.395       .  A
C1086      H1095   1.084       .  S
C1087      C1088   1.404       .  A
C1087      H1096   1.081       .  S
C1088      C1091   1.482       .  S
C1088      C1089   1.404       .  A
C1089      C1090   1.398       .  A
C1089      H1097   1.083       .  S
C1090      H1098   1.080       .  S
C1091      H1099   1.087       .  S
C1091      C1092   1.350       .  D
C1092      H1100   1.085       .  S
C1093      H1101   1.087       .  S
C1093      C1094   1.350       .  D
C1094      H1102   1.083       .  S
C1103      C1111   1.488       .  S
C1103      C1104   1.406       .  A
C1103      C1108   1.407       .  A
C1104      C1105   1.397       .  A
C1104      H1113   1.083       .  S
C1105      C1106   1.404       .  A
C1105      H1114   1.081       .  S
C1106      C1109   1.485       .  S
C1106      C1107   1.405       .  A
C1107      C1108   1.399       .  A
C1107      H1115   1.084       .  S
C1108      H1116   1.080       .  S
C1109      H1117   1.087       .  S
C1109      C1110   1.350       .  D
C1110      H1118   1.084       .  S
C1111      H1119   1.087       .  S
C1111      C1112   1.350       .  D
C1112      H1120   1.083       .  S
C1121      C1129   1.486       .  S
C1121      C1122   1.405       .  A
C1121      C1126   1.406       .  A
C1122      C1123   1.403       .  A
C1122      H1131   1.083       .  S
C1123      C1124   1.407       .  A
C1123      H1132   1.083       .  S
C1124      C1127   1.486       .  S
C1124      C1125   1.403       .  A
C1125      C1126   1.399       .  A
C1125      H1133   1.083       .  S
C1126      H1134   1.083       .  S
C1127      H1135   1.087       .  S
C1127      C1128   1.344       .  D
C1128      H1136   1.086       .  S
C1129      H1137   1.087       .  S
C1129      C1130   1.347       .  D
C1130      H1138   1.086       .  S
C1139      C1147   1.497       .  S
C1139      C1140   1.409       .  A
C1139      C1144   1.406       .  A
C1140      C1141   1.405       .  A
C1140      H1149   1.083       .  S
C1141      C1142   1.406       .  A
C1141      H1150   1.082       .  S
C1142      C1145   1.498       .  S
C1142      C1143   1.409       .  A
C1143      C1144   1.406       .  A
C1143      H1151   1.083       .  S
C1144      H1152   1.082       .  S
C1145      H1153   1.087       .  S
C1145      C1146   1.354       .  D
C1146      H1154   1.085       .  S
C1147      H1155   1.087       .  S
C1147      C1148   1.355       .  D
C1148      H1156   1.086       .  S
C1157      C1165   1.490       .  S
C1157      C1158   1.403       .  A
C1157      C1162   1.407       .  A
C1158      C1159   1.400       .  A
C1158      H1167   1.083       .  S
C1159      C1160   1.405       .  A
C1159      H1168   1.083       .  S
C1160      C1163   1.495       .  S
C1160      C1161   1.410       .  A
C1161      C1162   1.401       .  A
C1161      H1169   1.080       .  S
C1162      H1170   1.082       .  S
C1163      H1171   1.087       .  S
C1163      C1164   1.349       .  D
C1164      H1172   1.083       .  S
C1165      H1173   1.087       .  S
C1165      C1166   1.348       .  D
C1166      H1174   1.085       .  S
C1175      C1183   1.487       .  S
C1175      C1176   1.403       .  A
C1175      C1180   1.407       .  A
C1176      C1177   1.397       .  A
C1176      H1185   1.083       .  S
C1177      C1178   1.407       .  A
C1177      H1186   1.080       .  S
C1178      C1181   1.489   1_556  S
C1178      C1179   1.406       .  A
C1179      C1180   1.400       .  A
C1179      H1187   1.083       .  S
C1180      H1188   1.081       .  S
C1181      H1189   1.087       .  S
C1181      C1182   1.349       .  D
C1182      H1190   1.084       .  S
C1183      H1191   1.087       .  S
C1183      C1184   1.347       .  D
C1184      H1192   1.085       .  S
C1193      C1201   1.488       .  S
C1193      C1194   1.405       .  A
C1193      C1198   1.407       .  A
C1194      C1195   1.399       .  A
C1194      H1203   1.081       .  S
C1195      C1196   1.410       .  A
C1195      H1204   1.082       .  S
C1196      C1199   1.488       .  S
C1196      C1197   1.400       .  A
C1197      C1198   1.398       .  A
C1197      H1205   1.083       .  S
C1198      H1206   1.083       .  S
C1199      H1207   1.087       .  S
C1199      C1200   1.342       .  D
C1200      H1208   1.086       .  S
C1201      H1209   1.087       .  S
C1201      C1202   1.353       .  D
C1202      H1210   1.084       .  S
C1211      C1219   1.489       .  S
C1211      C1212   1.407       .  A
C1211      C1216   1.405       .  A
C1212      C1213   1.401       .  A
C1212      H1221   1.083       .  S
C1213      C1214   1.404       .  A
C1213      H1222   1.083       .  S
C1214      C1217   1.488       .  S
C1214      C1215   1.407       .  A
C1215      C1216   1.403       .  A
C1215      H1223   1.083       .  S
C1216      H1224   1.082       .  S
C1217      H1225   1.088       .  S
C1217      C1218   1.351       .  D
C1218      H1226   1.086       .  S
C1219      H1227   1.087       .  S
C1219      C1220   1.352       .  D
C1220      H1228   1.086       .  S
C1229      C1237   1.482       .  S
C1229      C1230   1.403       .  A
C1229      C1234   1.406       .  A
C1230      C1231   1.396       .  A
C1230      H1239   1.084       .  S
C1231      C1232   1.407       .  A
C1231      H1240   1.079       .  S
C1232      C1235   1.485       .  S
C1232      C1233   1.404       .  A
C1233      C1234   1.396       .  A
C1233      H1241   1.084       .  S
C1234      H1242   1.081       .  S
C1235      H1243   1.087       .  S
C1235      C1236   1.348       .  D
C1236      H1244   1.083       .  S
C1237      H1245   1.087       .  S
C1237      C1238   1.346       .  D
C1238      H1246   1.084       .  S
C1247      C1255   1.478   1_554  S
C1247      C1248   1.402       .  A
C1247      C1252   1.404       .  A
C1248      C1249   1.396       .  A
C1248      H1257   1.084       .  S
C1249      C1250   1.408       .  A
C1249      H1258   1.079       .  S
C1250      C1253   1.484       .  S
C1250      C1251   1.404       .  A
C1251      C1252   1.395       .  A
C1251      H1259   1.083       .  S
C1252      H1260   1.082       .  S
C1253      H1261   1.087       .  S
C1253      C1254   1.347       .  D
C1254      H1262   1.082       .  S
C1255      H1263   1.087       .  S
C1255      C1256   1.347       .  D
C1256      H1264   1.085       .  S
C1265      C1273   1.498       .  S
C1265      C1266   1.406       .  A
C1265      C1270   1.410       .  A
C1266      C1267   1.400       .  A
C1266      H1275   1.083       .  S
C1267      C1268   1.407   1_545  A
C1267      H1276   1.082       .  S
C1268      C1271   1.496       .  S
C1268      C1269   1.405   1_565  A
C1269      C1270   1.405       .  A
C1269      H1277   1.083   1_545  S
C1270      H1278   1.080       .  S
C1271      H1279   1.087       .  S
C1271      C1272   1.348       .  D
C1272      H1280   1.085       .  S
C1273      H1281   1.087       .  S
C1273      C1274   1.352       .  D
C1274      H1282   1.083       .  S
C1283      C1291   1.489       .  S
C1283      C1284   1.401       .  A
C1283      C1288   1.409       .  A
C1284      C1285   1.396       .  A
C1284      H1293   1.084       .  S
C1285      C1286   1.404       .  A
C1285      H1294   1.083       .  S
C1286      C1289   1.493       .  S
C1286      C1287   1.410       .  A
C1287      C1288   1.405       .  A
C1287      H1295   1.080       .  S
C1288      H1296   1.082       .  S
C1289      H1297   1.087       .  S
C1289      C1290   1.350       .  D
C1290      H1298   1.083       .  S
C1291      H1299   1.087       .  S
C1291      C1292   1.347       .  D
C1292      H1300   1.085       .  S
C1301      C1309   1.485       .  S
C1301      C1302   1.404       .  A
C1301      C1306   1.405       .  A
C1302      C1303   1.401       .  A
C1302      H1311   1.083       .  S
C1303      C1304   1.407       .  A
C1303      H1312   1.083       .  S
C1304      C1307   1.490       .  S
C1304      C1305   1.406       .  A
C1305      C1306   1.401       .  A
C1305      H1313   1.082       .  S
C1306      H1314   1.083       .  S
C1307      H1315   1.087       .  S
C1307      C1308   1.349       .  D
C1308      H1316   1.086       .  S
C1309      H1317   1.088       .  S
C1309      C1310   1.348       .  D
C1310      H1318   1.086       .  S
C1319      C1327   1.497       .  S
C1319      C1320   1.406       .  A
C1319      C1324   1.410       .  A
C1320      C1321   1.399       .  A
C1320      H1329   1.083       .  S
C1321      C1322   1.407   1_545  A
C1321      H1330   1.081       .  S
C1322      C1325   1.496       .  S
C1322      C1323   1.406   1_565  A
C1323      C1324   1.405       .  A
C1323      H1331   1.083   1_545  S
C1324      H1332   1.080       .  S
C1325      H1333   1.087       .  S
C1325      C1326   1.349       .  D
C1326      H1334   1.085       .  S
C1327      H1335   1.087       .  S
C1327      C1328   1.352       .  D
C1328      H1336   1.083       .  S
C1337      C1345   1.489       .  S
C1337      C1338   1.402       .  A
C1337      C1342   1.409       .  A
C1338      C1339   1.395       .  A
C1338      H1347   1.084       .  S
C1339      C1340   1.408       .  A
C1339      H1348   1.081       .  S
C1340      C1343   1.492       .  S
C1340      C1341   1.405       .  A
C1341      C1342   1.404       .  A
C1341      H1349   1.083       .  S
C1342      H1350   1.081       .  S
C1343      H1351   1.087       .  S
C1343      C1344   1.347       .  D
C1344      H1352   1.085       .  S
C1345      H1353   1.087       .  S
C1345      C1346   1.348       .  D
C1346      H1354   1.085       .  S
C1355      C1363   1.476       .  S
C1355      C1356   1.402       .  A
C1355      C1360   1.405       .  A
C1356      C1357   1.393       .  A
C1356      H1365   1.084       .  S
C1357      C1358   1.406       .  A
C1357      H1366   1.080       .  S
C1358      C1361   1.479       .  S
C1358      C1359   1.403       .  A
C1359      C1360   1.395       .  A
C1359      H1367   1.084       .  S
C1360      H1368   1.081       .  S
C1361      H1369   1.087       .  S
C1361      C1362   1.347       .  D
C1362      H1370   1.084       .  S
C1363      H1371   1.087       .  S
C1363      C1364   1.347       .  D
C1364      H1372   1.085       .  S
C1373      C1381   1.483       .  S
C1373      C1374   1.405       .  A
C1373      C1378   1.404       .  A
C1374      C1375   1.398       .  A
C1374      H1383   1.084       .  S
C1375      C1376   1.406       .  A
C1375      H1384   1.080       .  S
C1376      C1379   1.483       .  S
C1376      C1377   1.404       .  A
C1377      C1378   1.393       .  A
C1377      H1385   1.084       .  S
C1378      H1386   1.080       .  S
C1379      H1387   1.087       .  S
C1379      C1380   1.349       .  D
C1380      H1388   1.083       .  S
C1381      H1389   1.087       .  S
C1381      C1382   1.350       .  D
C1382      H1390   1.083       .  S
C1391      C1399   1.490       .  S
C1391      C1392   1.407       .  A
C1391      C1396   1.404       .  A
C1392      C1393   1.403       .  A
C1392      H1401   1.083       .  S
C1393      C1394   1.404       .  A
C1393      H1402   1.082   1_556  S
C1394      C1397   1.489       .  S
C1394      C1395   1.407       .  A
C1395      C1396   1.402       .  A
C1395      H1403   1.083       .  S
C1396      H1404   1.082       .  S
C1397      H1405   1.088       .  S
C1397      C1398   1.353   1_556  D
C1398      H1406   1.086       .  S
C1399      H1407   1.088       .  S
C1399      C1400   1.351       .  D
C1400      H1408   1.086       .  S
C1409      C1417   1.488       .  S
C1409      C1410   1.405       .  A
C1409      C1414   1.406       .  A
C1410      C1411   1.399       .  A
C1410      H1419   1.081       .  S
C1411      C1412   1.407       .  A
C1411      H1420   1.083       .  S
C1412      C1415   1.490       .  S
C1412      C1413   1.406       .  A
C1413      C1414   1.399       .  A
C1413      H1421   1.080       .  S
C1414      H1422   1.083       .  S
C1415      H1423   1.087       .  S
C1415      C1416   1.352       .  D
C1416      H1424   1.083       .  S
C1417      H1425   1.087       .  S
C1417      C1418   1.353       .  D
C1418      H1426   1.084       .  S
C1427      C1435   1.490       .  S
C1427      C1428   1.408       .  A
C1427      C1432   1.405       .  A
C1428      C1429   1.399       .  A
C1428      H1437   1.083       .  S
C1429      C1430   1.404       .  A
C1429      H1438   1.080       .  S
C1430      C1433   1.490       .  S
C1430      C1431   1.409       .  A
C1431      C1432   1.400       .  A
C1431      H1439   1.083       .  S
C1432      H1440   1.081       .  S
C1433      H1441   1.087       .  S
C1433      C1434   1.357       .  D
C1434      H1442   1.083       .  S
C1435      H1443   1.087       .  S
C1435      C1436   1.354       .  D
C1436      H1444   1.084       .  S
C1445      C1453   1.486       .  S
C1445      C1446   1.407       .  A
C1445      C1450   1.405       .  A
C1446      C1447   1.398       .  A
C1446      H1455   1.084       .  S
C1447      C1448   1.404       .  A
C1447      H1456   1.081       .  S
C1448      C1451   1.483       .  S
C1448      C1449   1.405       .  A
C1449      C1450   1.396       .  A
C1449      H1457   1.084       .  S
C1450      H1458   1.079       .  S
C1451      H1459   1.087       .  S
C1451      C1452   1.350       .  D
C1452      H1460   1.084       .  S
C1453      H1461   1.087       .  S
C1453      C1454   1.352       .  D
C1454      H1462   1.083       .  S
C1463      C1471   1.486       .  S
C1463      C1464   1.405       .  A
C1463      C1468   1.407       .  A
C1464      C1465   1.397       .  A
C1464      H1473   1.083       .  S
C1465      C1466   1.406       .  A
C1465      H1474   1.080       .  S
C1466      C1469   1.485       .  S
C1466      C1467   1.404       .  A
C1467      C1468   1.396       .  A
C1467      H1475   1.084       .  S
C1468      H1476   1.079       .  S
C1469      H1477   1.087       .  S
C1469      C1470   1.349       .  D
C1470      H1478   1.083       .  S
C1471      H1479   1.087   1_554  S
C1471      C1472   1.348   1_554  D
C1472      H1480   1.083       .  S
C1481      C1489   1.488       .  S
C1481      C1482   1.404       .  A
C1481      C1486   1.408       .  A
C1482      C1483   1.398       .  A
C1482      H1491   1.081       .  S
C1483      C1484   1.406       .  A
C1483      H1492   1.084       .  S
C1484      C1487   1.484       .  S
C1484      C1485   1.404       .  A
C1485      C1486   1.401       .  A
C1485      H1493   1.082       .  S
C1486      H1494   1.083       .  S
C1487      H1495   1.088       .  S
C1487      C1488   1.352       .  D
C1488      H1496   1.085       .  S
C1489      H1497   1.088       .  S
C1489      C1490   1.352       .  D
C1490      H1498   1.084       .  S
C1499      C1507   1.487       .  S
C1499      C1500   1.405       .  A
C1499      C1504   1.407       .  A
C1500      C1501   1.402       .  A
C1500      H1509   1.083       .  S
C1501      C1502   1.406       .  A
C1501      H1510   1.083       .  S
C1502      C1505   1.485       .  S
C1502      C1503   1.404       .  A
C1503      C1504   1.400       .  A
C1503      H1511   1.083       .  S
C1504      H1512   1.083       .  S
C1505      H1513   1.087       .  S
C1505      C1506   1.345       .  D
C1506      H1514   1.086       .  S
C1507      H1515   1.087       .  S
C1507      C1508   1.348       .  D
C1508      H1516   1.086       .  S
C1517      C1525   1.491       .  S
C1517      C1518   1.403       .  A
C1517      C1522   1.406       .  A
C1518      C1519   1.404       .  A
C1518      H1527   1.083       .  S
C1519      C1520   1.411       .  A
C1519      H1528   1.079       .  S
C1520      C1523   1.496       .  S
C1520      C1521   1.405       .  A
C1521      C1522   1.398       .  A
C1521      H1529   1.083       .  S
C1522      H1530   1.082       .  S
C1523      H1531   1.087       .  S
C1523      C1524   1.351       .  D
C1524      H1532   1.083       .  S
C1525      H1533   1.087       .  S
C1525      C1526   1.346       .  D
C1526      H1534   1.086       .  S
C1535      C1543   1.490       .  S
C1535      C1536   1.405       .  A
C1535      C1540   1.406       .  A
C1536      C1537   1.403       .  A
C1536      H1545   1.083       .  S
C1537      C1538   1.407       .  A
C1537      H1546   1.083       .  S
C1538      C1541   1.492       .  S
C1538      C1539   1.406       .  A
C1539      C1540   1.403       .  A
C1539      H1547   1.082       .  S
C1540      H1548   1.083       .  S
C1541      H1549   1.087       .  S
C1541      C1542   1.352       .  D
C1542      H1550   1.086       .  S
C1543      H1551   1.088       .  S
C1543      C1544   1.350       .  D
C1544      H1552   1.086       .  S
C1553      C1561   1.493       .  S
C1553      C1554   1.409       .  A
C1553      C1558   1.404       .  A
C1554      C1555   1.403       .  A
C1554      H1563   1.083       .  S
C1555      C1556   1.405       .  A
C1555      H1564   1.082       .  S
C1556      C1559   1.492       .  S
C1556      C1557   1.408       .  A
C1557      C1558   1.402       .  A
C1557      H1565   1.083       .  S
C1558      H1566   1.082       .  S
C1559      H1567   1.088       .  S
C1559      C1560   1.355       .  D
C1560      H1568   1.085       .  S
C1561      H1569   1.087       .  S
C1561      C1562   1.355       .  D
C1562      H1570   1.085       .  S
C1571      C1579   1.496   1_554  S
C1571      C1572   1.405       .  A
C1571      C1576   1.410       .  A
C1572      C1573   1.405       .  A
C1572      H1581   1.083   1_554  S
C1573      C1574   1.410       .  A
C1573      H1582   1.082       .  S
C1574      C1577   1.493       .  S
C1574      C1575   1.402       .  A
C1575      C1576   1.400       .  A
C1575      H1583   1.083       .  S
C1576      H1584   1.082       .  S
C1577      H1585   1.087       .  S
C1577      C1578   1.347       .  D
C1578      H1586   1.086       .  S
C1579      H1587   1.086   1_556  S
C1579      C1580   1.347       .  D
C1580      H1588   1.086       .  S
C1589      C1597   1.495       .  S
C1589      C1590   1.405   1_556  A
C1589      C1594   1.407       .  A
C1590      C1591   1.406       .  A
C1590      H1599   1.083       .  S
C1591      C1592   1.412       .  A
C1591      H1600   1.080       .  S
C1592      C1595   1.496       .  S
C1592      C1593   1.404   1_554  A
C1593      C1594   1.396       .  A
C1593      H1601   1.083       .  S
C1594      H1602   1.082       .  S
C1595      H1603   1.087       .  S
C1595      C1596   1.350       .  D
C1596      H1604   1.083       .  S
C1597      H1605   1.086       .  S
C1597      C1598   1.347       .  D
C1598      H1606   1.086       .  S
C1607      C1615   1.502       .  S
C1607      C1608   1.406       .  A
C1607      C1612   1.411       .  A
C1608      C1609   1.405       .  A
C1608      H1617   1.083       .  S
C1609      C1610   1.410       .  A
C1609      H1618   1.082       .  S
C1610      C1613   1.499       .  S
C1610      C1611   1.404       .  A
C1611      C1612   1.403       .  A
C1611      H1619   1.083       .  S
C1612      H1620   1.081       .  S
C1613      H1621   1.087       .  S
C1613      C1614   1.347       .  D
C1614      H1622   1.086       .  S
C1615      H1623   1.087       .  S
C1615      C1616   1.349       .  D
C1616      H1624   1.084       .  S
C1625      C1633   1.504       .  S
C1625      C1626   1.406       .  A
C1625      C1630   1.412       .  A
C1626      C1627   1.404       .  A
C1626      H1635   1.083       .  S
C1627      C1628   1.410       .  A
C1627      H1636   1.082       .  S
C1628      C1631   1.502       .  S
C1628      C1629   1.405       .  A
C1629      C1630   1.405       .  A
C1629      H1637   1.083       .  S
C1630      H1638   1.081       .  S
C1631      H1639   1.087       .  S
C1631      C1632   1.349       .  D
C1632      H1640   1.085       .  S
C1633      H1641   1.087       .  S
C1633      C1634   1.349       .  D
C1634      H1642   1.084       .  S
C1643      C1651   1.503       .  S
C1643      C1644   1.408       .  A
C1643      C1648   1.409       .  A
C1644      C1645   1.401       .  A
C1644      H1653   1.080       .  S
C1645      C1646   1.406       .  A
C1645      H1654   1.083       .  S
C1646      C1649   1.499       .  S
C1646      C1647   1.409       .  A
C1647      C1648   1.407       .  A
C1647      H1655   1.081       .  S
C1648      H1656   1.083       .  S
C1649      H1657   1.087       .  S
C1649      C1650   1.352       .  D
C1650      H1658   1.085       .  S
C1651      H1659   1.087       .  S
C1651      C1652   1.352       .  D
C1652      H1660   1.083       .  S
C1661      C1669   1.484       .  S
C1661      C1662   1.406       .  A
C1661      C1666   1.404       .  A
C1662      C1663   1.398       .  A
C1662      H1671   1.084       .  S
C1663      C1664   1.404       .  A
C1663      H1672   1.081       .  S
C1664      C1667   1.487       .  S
C1664      C1665   1.408       .  A
C1665      C1666   1.400       .  A
C1665      H1673   1.083       .  S
C1666      H1674   1.082       .  S
C1667      H1675   1.088       .  S
C1667      C1668   1.351       .  D
C1668      H1676   1.084       .  S
C1669      H1677   1.088       .  S
C1669      C1670   1.351       .  D
C1670      H1678   1.085       .  S
C1679      C1687   1.497       .  S
C1679      C1680   1.404       .  A
C1679      C1684   1.410       .  A
C1680      C1681   1.398       .  A
C1680      H1689   1.083       .  S
C1681      C1682   1.408   1_655  A
C1681      H1690   1.081       .  S
C1682      C1685   1.498       .  S
C1682      C1683   1.406   1_455  A
C1683      C1684   1.405       .  A
C1683      H1691   1.083   1_655  S
C1684      H1692   1.080       .  S
C1685      H1693   1.087       .  S
C1685      C1686   1.349       .  D
C1686      H1694   1.084       .  S
C1687      H1695   1.087       .  S
C1687      C1688   1.351       .  D
C1688      H1696   1.084       .  S
C1697      C1705   1.495       .  S
C1697      C1698   1.405   1_545  A
C1697      C1702   1.407   1_545  A
C1698      C1699   1.405       .  A
C1698      H1707   1.083   1_565  S
C1699      C1700   1.411       .  A
C1699      H1708   1.080       .  S
C1700      C1703   1.496       .  S
C1700      C1701   1.405       .  A
C1701      C1702   1.397       .  A
C1701      H1709   1.083       .  S
C1702      H1710   1.082   1_565  S
C1703      H1711   1.087       .  S
C1703      C1704   1.352       .  D
C1704      H1712   1.083       .  S
C1705      H1713   1.087       .  S
C1705      C1706   1.348       .  D
C1706      H1714   1.085       .  S
C1715      C1723   1.487       .  S
C1715      C1716   1.404       .  A
C1715      C1720   1.407       .  A
C1716      C1717   1.400       .  A
C1716      H1725   1.081       .  S
C1717      C1718   1.409       .  A
C1717      H1726   1.083       .  S
C1718      C1721   1.490       .  S
C1718      C1719   1.404       .  A
C1719      C1720   1.399       .  A
C1719      H1727   1.081       .  S
C1720      H1728   1.083       .  S
C1721      H1729   1.087       .  S
C1721      C1722   1.355       .  D
C1722      H1730   1.084       .  S
C1723      H1731   1.088       .  S
C1723      C1724   1.354       .  D
C1724      H1732   1.085       .  S
C1733      C1741   1.482   1_655  S
C1733      C1734   1.402       .  A
C1733      C1738   1.405       .  A
C1734      C1735   1.398       .  A
C1734      H1743   1.083       .  S
C1735      C1736   1.406       .  A
C1735      H1744   1.083       .  S
C1736      C1739   1.486       .  S
C1736      C1737   1.405       .  A
C1737      C1738   1.402       .  A
C1737      H1745   1.083       .  S
C1738      H1746   1.083       .  S
C1739      H1747   1.087       .  S
C1739      C1740   1.347       .  D
C1740      H1748   1.087       .  S
C1741      H1749   1.087       .  S
C1741      C1742   1.345       .  D
C1742      H1750   1.087       .  S
C1751      C1759   1.497       .  S
C1751      C1752   1.404   1_545  A
C1751      C1756   1.409   1_545  A
C1752      C1753   1.403       .  A
C1752      H1761   1.083   1_565  S
C1753      C1754   1.410       .  A
C1753      H1762   1.080       .  S
C1754      C1757   1.499       .  S
C1754      C1755   1.406       .  A
C1755      C1756   1.402       .  A
C1755      H1763   1.083       .  S
C1756      H1764   1.082   1_565  S
C1757      H1765   1.087       .  S
C1757      C1758   1.351       .  D
C1758      H1766   1.083       .  S
C1759      H1767   1.087       .  S
C1759      C1760   1.348       .  D
C1760      H1768   1.085       .  S
C1769      C1777   1.499       .  S
C1769      C1770   1.403       .  A
C1769      C1774   1.410       .  A
C1770      C1771   1.403       .  A
C1770      H1779   1.083       .  S
C1771      C1772   1.412       .  A
C1771      H1780   1.080       .  S
C1772      C1775   1.504   1_556  S
C1772      C1773   1.407       .  A
C1773      C1774   1.405       .  A
C1773      H1781   1.083       .  S
C1774      H1782   1.082       .  S
C1775      H1783   1.087       .  S
C1775      C1776   1.349       .  D
C1776      H1784   1.084       .  S
C1777      H1785   1.087       .  S
C1777      C1778   1.347       .  D
C1778      H1786   1.086       .  S
C1787      C1795   1.504       .  S
C1787      C1788   1.406       .  A
C1787      C1792   1.411       .  A
C1788      C1789   1.405       .  A
C1788      H1797   1.083       .  S
C1789      C1790   1.410       .  A
C1789      H1798   1.082       .  S
C1790      C1793   1.502       .  S
C1790      C1791   1.406       .  A
C1791      C1792   1.405       .  A
C1791      H1799   1.083       .  S
C1792      H1800   1.081       .  S
C1793      H1801   1.087       .  S
C1793      C1794   1.350       .  D
C1794      H1802   1.085       .  S
C1795      H1803   1.087       .  S
C1795      C1796   1.350       .  D
C1796      H1804   1.085       .  S
C1805      C1813   1.489       .  S
C1805      C1806   1.405       .  A
C1805      C1810   1.408       .  A
C1806      C1807   1.403       .  A
C1806      H1815   1.082       .  S
C1807      C1808   1.412       .  A
C1807      H1816   1.083       .  S
C1808      C1811   1.492       .  S
C1808      C1809   1.399       .  A
C1809      C1810   1.400       .  A
C1809      H1817   1.083       .  S
C1810      H1818   1.083       .  S
C1811      H1819   1.086       .  S
C1811      C1812   1.343       .  D
C1812      H1820   1.087       .  S
C1813      H1821   1.088       .  S
C1813      C1814   1.354       .  D
C1814      H1822   1.085       .  S
C1823      C1831   1.493       .  S
C1823      C1824   1.403       .  A
C1823      C1828   1.410       .  A
C1824      C1825   1.403       .  A
C1824      H1833   1.083       .  S
C1825      C1826   1.410   1_655  A
C1825      H1834   1.082   1_655  S
C1826      C1829   1.491       .  S
C1826      C1827   1.402   1_455  A
C1827      C1828   1.399       .  A
C1827      H1835   1.083       .  S
C1828      H1836   1.082       .  S
C1829      H1837   1.087       .  S
C1829      C1830   1.346       .  D
C1830      H1838   1.086       .  S
C1831      H1839   1.086       .  S
C1831      C1832   1.345       .  D
C1832      H1840   1.086       .  S
C1841      C1849   1.499       .  S
C1841      C1842   1.408       .  A
C1841      C1846   1.407       .  A
C1842      C1843   1.406       .  A
C1842      H1851   1.083       .  S
C1843      C1844   1.408       .  A
C1843      H1852   1.081   1_554  S
C1844      C1847   1.500       .  S
C1844      C1845   1.408       .  A
C1845      C1846   1.402       .  A
C1845      H1853   1.083       .  S
C1846      H1854   1.081       .  S
C1847      H1855   1.087       .  S
C1847      C1848   1.355   1_554  D
C1848      H1856   1.084       .  S
C1849      H1857   1.087       .  S
C1849      C1850   1.352       .  D
C1850      H1858   1.085       .  S
C1859      C1867   1.485       .  S
C1859      C1860   1.406       .  A
C1859      C1864   1.404       .  A
C1860      C1861   1.399       .  A
C1860      H1869   1.084       .  S
C1861      C1862   1.406       .  A
C1861      H1870   1.080       .  S
C1862      C1865   1.490       .  S
C1862      C1863   1.407       .  A
C1863      C1864   1.399       .  A
C1863      H1871   1.083       .  S
C1864      H1872   1.081       .  S
C1865      H1873   1.087       .  S
C1865      C1866   1.352       .  D
C1866      H1874   1.084       .  S
C1867      H1875   1.088       .  S
C1867      C1868   1.352       .  D
C1868      H1876   1.085       .  S
C1877      C1885   1.488       .  S
C1877      C1878   1.407       .  A
C1877      C1882   1.402       .  A
C1878      C1879   1.401       .  A
C1878      H1887   1.082       .  S
C1879      C1880   1.410       .  A
C1879      H1888   1.080       .  S
C1880      C1883   1.492   1_655  S
C1880      C1881   1.405       .  A
C1881      C1882   1.398       .  A
C1881      H1889   1.083       .  S
C1882      H1890   1.083       .  S
C1883      H1891   1.087       .  S
C1883      C1884   1.348       .  D
C1884      H1892   1.084       .  S
C1885      H1893   1.087       .  S
C1885      C1886   1.347       .  D
C1886      H1894   1.085       .  S
C1895      C1903   1.489       .  S
C1895      C1896   1.406       .  A
C1895      C1900   1.408       .  A
C1896      C1897   1.398       .  A
C1896      H1905   1.083       .  S
C1897      C1898   1.405       .  A
C1897      H1906   1.081       .  S
C1898      C1901   1.483       .  S
C1898      C1899   1.403       .  A
C1899      C1900   1.396       .  A
C1899      H1907   1.084       .  S
C1900      H1908   1.079       .  S
C1901      H1909   1.087       .  S
C1901      C1902   1.349       .  D
C1902      H1910   1.085       .  S
C1903      H1911   1.087       .  S
C1903      C1904   1.349       .  D
C1904      H1912   1.082       .  S
C1913      C1921   1.487       .  S
C1913      C1914   1.408       .  A
C1913      C1918   1.406       .  A
C1914      C1915   1.400       .  A
C1914      H1923   1.083       .  S
C1915      C1916   1.403       .  A
C1915      H1924   1.082       .  S
C1916      C1919   1.479       .  S
C1916      C1917   1.403       .  A
C1917      C1918   1.394       .  A
C1917      H1925   1.084       .  S
C1918      H1926   1.079       .  S
C1919      H1927   1.087       .  S
C1919      C1920   1.349       .  D
C1920      H1928   1.085       .  S
C1921      H1929   1.087       .  S
C1921      C1922   1.351       .  D
C1922      H1930   1.082       .  S
C1931      C1939   1.490       .  S
C1931      C1932   1.407       .  A
C1931      C1936   1.405       .  A
C1932      C1933   1.403       .  A
C1932      H1941   1.083       .  S
C1933      C1934   1.404       .  A
C1933      H1942   1.083       .  S
C1934      C1937   1.488       .  S
C1934      C1935   1.406       .  A
C1935      C1936   1.402       .  A
C1935      H1943   1.083       .  S
C1936      H1944   1.082       .  S
C1937      H1945   1.088       .  S
C1937      C1938   1.351       .  D
C1938      H1946   1.086       .  S
C1939      H1947   1.088       .  S
C1939      C1940   1.350       .  D
C1940      H1948   1.086       .  S
C1949      C1957   1.490       .  S
C1949      C1950   1.400       .  A
C1949      C1954   1.411       .  A
C1950      C1951   1.400       .  A
C1950      H1959   1.083       .  S
C1951      C1952   1.406       .  A
C1951      H1960   1.083       .  S
C1952      C1955   1.485       .  S
C1952      C1953   1.404       .  A
C1953      C1954   1.401       .  A
C1953      H1961   1.082       .  S
C1954      H1962   1.082       .  S
C1955      H1963   1.088       .  S
C1955      C1956   1.351       .  D
C1956      H1964   1.086       .  S
C1957      H1965   1.087       .  S
C1957      C1958   1.342       .  D
C1958      H1966   1.086       .  S
C1967      C1975   1.483       .  S
C1967      C1968   1.403       .  A
C1967      C1972   1.406       .  A
C1968      C1969   1.401       .  A
C1968      H1977   1.083       .  S
C1969      C1970   1.407       .  A
C1969      H1978   1.082       .  S
C1970      C1973   1.485       .  S
C1970      C1971   1.404       .  A
C1971      C1972   1.399       .  A
C1971      H1979   1.083       .  S
C1972      H1980   1.083       .  S
C1973      H1981   1.087       .  S
C1973      C1974   1.347       .  D
C1974      H1982   1.086       .  S
C1975      H1983   1.087       .  S
C1975      C1976   1.344       .  D
C1976      H1984   1.087       .  S
C1985      C1993   1.493       .  S
C1985      C1986   1.401       .  A
C1985      C1990   1.411       .  A
C1986      C1987   1.401       .  A
C1986      H1995   1.083       .  S
C1987      C1988   1.408       .  A
C1987      H1996   1.083       .  S
C1988      C1991   1.490       .  S
C1988      C1989   1.405       .  A
C1989      C1990   1.402       .  A
C1989      H1997   1.082       .  S
C1990      H1998   1.083       .  S
C1991      H1999   1.088       .  S
C1991      C1992   1.353       .  D
C1992      H2000   1.085       .  S
C1993      H2001   1.086       .  S
C1993      C1994   1.343       .  D
C1994      H2002   1.087       .  S
C2003      C2011   1.489       .  S
C2003      C2004   1.404       .  A
C2003      C2008   1.407       .  A
C2004      C2005   1.402       .  A
C2004      H2013   1.083       .  S
C2005      C2006   1.409       .  A
C2005      H2014   1.081       .  S
C2006      C2009   1.490       .  S
C2006      C2007   1.404       .  A
C2007      C2008   1.397       .  A
C2007      H2015   1.083       .  S
C2008      H2016   1.082       .  S
C2009      H2017   1.087       .  S
C2009      C2010   1.348       .  D
C2010      H2018   1.084       .  S
C2011      H2019   1.087       .  S
C2011      C2012   1.346       .  D
C2012      H2020   1.086       .  S
C2021      C2029   1.486       .  S
C2021      C2022   1.407       .  A
C2021      C2026   1.406       .  A
C2022      C2023   1.398       .  A
C2022      H2031   1.084       .  S
C2023      C2024   1.404       .  A
C2023      H2032   1.081       .  S
C2024      C2027   1.482       .  S
C2024      C2025   1.404       .  A
C2025      C2026   1.395       .  A
C2025      H2033   1.084       .  S
C2026      H2034   1.079       .  S
C2027      H2035   1.087       .  S
C2027      C2028   1.350       .  D
C2028      H2036   1.084       .  S
C2029      H2037   1.087       .  S
C2029      C2030   1.351       .  D
C2030      H2038   1.083       .  S
C2039      C2047   1.484       .  S
C2039      C2040   1.405       .  A
C2039      C2044   1.405       .  A
C2040      C2041   1.396       .  A
C2040      H2049   1.084       .  S
C2041      C2042   1.405       .  A
C2041      H2050   1.081       .  S
C2042      C2045   1.484   1_554  S
C2042      C2043   1.405       .  A
C2043      C2044   1.397       .  A
C2043      H2051   1.083       .  S
C2044      H2052   1.081       .  S
C2045      H2053   1.087       .  S
C2045      C2046   1.350       .  D
C2046      H2054   1.084       .  S
C2047      H2055   1.087       .  S
C2047      C2048   1.351       .  D
C2048      H2056   1.084       .  S
C2057      C2065   1.487       .  S
C2057      C2058   1.408       .  A
C2057      C2062   1.405       .  A
C2058      C2059   1.400       .  A
C2058      H2067   1.083       .  S
C2059      C2060   1.405       .  A
C2059      H2068   1.082       .  S
C2060      C2063   1.484       .  S
C2060      C2061   1.404       .  A
C2061      C2062   1.397       .  A
C2061      H2069   1.083       .  S
C2062      H2070   1.081       .  S
C2063      H2071   1.088       .  S
C2063      C2064   1.349       .  D
C2064      H2072   1.085       .  S
C2065      H2073   1.088       .  S
C2065      C2066   1.352       .  D
C2066      H2074   1.084       .  S
C2075      C2083   1.491       .  S
C2075      C2076   1.405       .  A
C2075      C2080   1.406       .  A
C2076      C2077   1.405       .  A
C2076      H2085   1.083       .  S
C2077      C2078   1.410       .  A
C2077      H2086   1.080       .  S
C2078      C2081   1.493       .  S
C2078      C2079   1.405       .  A
C2079      C2080   1.396       .  A
C2079      H2087   1.083       .  S
C2080      H2088   1.082       .  S
C2081      H2089   1.087       .  S
C2081      C2082   1.351       .  D
C2082      H2090   1.083       .  S
C2083      H2091   1.087       .  S
C2083      C2084   1.347       .  D
C2084      H2092   1.085       .  S
C2093      C2101   1.489       .  S
C2093      C2094   1.404       .  A
C2093      C2098   1.409       .  A
C2094      C2095   1.396       .  A
C2094      H2103   1.084       .  S
C2095      C2096   1.407       .  A
C2095      H2104   1.081       .  S
C2096      C2099   1.489       .  S
C2096      C2097   1.404       .  A
C2097      C2098   1.401       .  A
C2097      H2105   1.083       .  S
C2098      H2106   1.080       .  S
C2099      H2107   1.087       .  S
C2099      C2100   1.346       .  D
C2100      H2108   1.085       .  S
C2101      H2109   1.087       .  S
C2101      C2102   1.349       .  D
C2102      H2110   1.084       .  S
C2111      C2119   1.489       .  S
C2111      C2112   1.406       .  A
C2111      C2116   1.405       .  A
C2112      C2113   1.401       .  A
C2112      H2121   1.083       .  S
C2113      C2114   1.405       .  A
C2113      H2122   1.082       .  S
C2114      C2117   1.489       .  S
C2114      C2115   1.407       .  A
C2115      C2116   1.403       .  A
C2115      H2123   1.083       .  S
C2116      H2124   1.083       .  S
C2117      H2125   1.087       .  S
C2117      C2118   1.351       .  D
C2118      H2126   1.086       .  S
C2119      H2127   1.088       .  S
C2119      C2120   1.349       .  D
C2120      H2128   1.086       .  S
C2129      C2137   1.489       .  S
C2129      C2130   1.407       .  A
C2129      C2134   1.405       .  A
C2130      C2131   1.400       .  A
C2130      H2139   1.083       .  S
C2131      C2132   1.404       .  A
C2131      H2140   1.081       .  S
C2132      C2135   1.486       .  S
C2132      C2133   1.406       .  A
C2133      C2134   1.398       .  A
C2133      H2141   1.084       .  S
C2134      H2142   1.080       .  S
C2135      H2143   1.088       .  S
C2135      C2136   1.353       .  D
C2136      H2144   1.084       .  S
C2137      H2145   1.087       .  S
C2137      C2138   1.351       .  D
C2138      H2146   1.083       .  S
C2147      C2155   1.491   1_554  S
C2147      C2148   1.405       .  A
C2147      C2152   1.407   1_554  A
C2148      C2149   1.404       .  A
C2148      H2157   1.083       .  S
C2149      C2150   1.410       .  A
C2149      H2158   1.081       .  S
C2150      C2153   1.490       .  S
C2150      C2151   1.402       .  A
C2151      C2152   1.394   1_554  A
C2151      H2159   1.084       .  S
C2152      H2160   1.082       .  S
C2153      H2161   1.087       .  S
C2153      C2154   1.347       .  D
C2154      H2162   1.084       .  S
C2155      H2163   1.087   1_556  S
C2155      C2156   1.346       .  D
C2156      H2164   1.085       .  S
C2165      C2173   1.489       .  S
C2165      C2166   1.409       .  A
C2165      C2170   1.404       .  A
C2166      C2167   1.402       .  A
C2166      H2175   1.080   1_554  S
C2167      C2168   1.410       .  A
C2167      H2176   1.081       .  S
C2168      C2171   1.488       .  S
C2168      C2169   1.400       .  A
C2169      C2170   1.395       .  A
C2169      H2177   1.083       .  S
C2170      H2178   1.083       .  S
C2171      H2179   1.087       .  S
C2171      C2172   1.344       .  D
C2172      H2180   1.085       .  S
C2173      H2181   1.087       .  S
C2173      C2174   1.350   1_554  D
C2174      H2182   1.083       .  S
C2183      C2191   1.478       .  S
C2183      C2184   1.401       .  A
C2183      C2188   1.405       .  A
C2184      C2185   1.392       .  A
C2184      H2193   1.084       .  S
C2185      C2186   1.407       .  A
C2185      H2194   1.079       .  S
C2186      C2189   1.486       .  S
C2186      C2187   1.406       .  A
C2187      C2188   1.398       .  A
C2187      H2195   1.083       .  S
C2188      H2196   1.082       .  S
C2189      H2197   1.087       .  S
C2189      C2190   1.349       .  D
C2190      H2198   1.082       .  S
C2191      H2199   1.087       .  S
C2191      C2192   1.346       .  D
C2192      H2200   1.085       .  S
C2201      C2209   1.485       .  S
C2201      C2202   1.405       .  A
C2201      C2206   1.407       .  A
C2202      C2203   1.395       .  A
C2202      H2211   1.084       .  S
C2203      C2204   1.405       .  A
C2203      H2212   1.081       .  S
C2204      C2207   1.482       .  S
C2204      C2205   1.404       .  A
C2205      C2206   1.398       .  A
C2205      H2213   1.084       .  S
C2206      H2214   1.080       .  S
C2207      H2215   1.087       .  S
C2207      C2208   1.348       .  D
C2208      H2216   1.085       .  S
C2209      H2217   1.087       .  S
C2209      C2210   1.349       .  D
C2210      H2218   1.083       .  S
C2219      C2227   1.490       .  S
C2219      C2220   1.407       .  A
C2219      C2224   1.405       .  A
C2220      C2221   1.402       .  A
C2220      H2229   1.083       .  S
C2221      C2222   1.405       .  A
C2221      H2230   1.082       .  S
C2222      C2225   1.492       .  S
C2222      C2223   1.408       .  A
C2223      C2224   1.403       .  A
C2223      H2231   1.083       .  S
C2224      H2232   1.082       .  S
C2225      H2233   1.088       .  S
C2225      C2226   1.351       .  D
C2226      H2234   1.085       .  S
C2227      H2235   1.088       .  S
C2227      C2228   1.352       .  D
C2228      H2236   1.085       .  S
C2237      C2245   1.489       .  S
C2237      C2238   1.408       .  A
C2237      C2242   1.404       .  A
C2238      C2239   1.402       .  A
C2238      H2247   1.083       .  S
C2239      C2240   1.406       .  A
C2239      H2248   1.081       .  S
C2240      C2243   1.488       .  S
C2240      C2241   1.406       .  A
C2241      C2242   1.396       .  A
C2241      H2249   1.084       .  S
C2242      H2250   1.080       .  S
C2243      H2251   1.088       .  S
C2243      C2244   1.352       .  D
C2244      H2252   1.084       .  S
C2245      H2253   1.087       .  S
C2245      C2246   1.352       .  D
C2246      H2254   1.084       .  S
C2255      C2263   1.490   1_545  S
C2255      C2256   1.403       .  A
C2255      C2260   1.410       .  A
C2256      C2257   1.399       .  A
C2256      H2265   1.083       .  S
C2257      C2258   1.408       .  A
C2257      H2266   1.082       .  S
C2258      C2261   1.486       .  S
C2258      C2259   1.401       .  A
C2259      C2260   1.399       .  A
C2259      H2267   1.083       .  S
C2260      H2268   1.081       .  S
C2261      H2269   1.087       .  S
C2261      C2262   1.343       .  D
C2262      H2270   1.086       .  S
C2263      H2271   1.087       .  S
C2263      C2264   1.345       .  D
C2264      H2272   1.085       .  S
C2273      C2281   1.486       .  S
C2273      C2274   1.400   1_655  A
C2273      C2278   1.409   1_655  A
C2274      C2275   1.393       .  A
C2274      H2283   1.084       .  S
C2275      C2276   1.403       .  A
C2275      H2284   1.084       .  S
C2276      C2279   1.487       .  S
C2276      C2277   1.409       .  A
C2277      C2278   1.407       .  A
C2277      H2285   1.081       .  S
C2278      H2286   1.082   1_455  S
C2279      H2287   1.087       .  S
C2279      C2280   1.351       .  D
C2280      H2288   1.085       .  S
C2281      H2289   1.087       .  S
C2281      C2282   1.346       .  D
C2282      H2290   1.085       .  S
C2291      C2299   1.495       .  S
C2291      C2292   1.409       .  A
C2291      C2296   1.407       .  A
C2292      C2293   1.401       .  A
C2292      H2301   1.083       .  S
C2293      C2294   1.404       .  A
C2293      H2302   1.082       .  S
C2294      C2297   1.489       .  S
C2294      C2295   1.407       .  A
C2295      C2296   1.402       .  A
C2295      H2303   1.083       .  S
C2296      H2304   1.080       .  S
C2297      H2305   1.088       .  S
C2297      C2298   1.354       .  D
C2298      H2306   1.085       .  S
C2299      H2307   1.087       .  S
C2299      C2300   1.355       .  D
C2300      H2308   1.083       .  S
C2309      C2317   1.491   1_545  S
C2309      C2310   1.403       .  A
C2309      C2314   1.410       .  A
C2310      C2311   1.400       .  A
C2310      H2319   1.083       .  S
C2311      C2312   1.409       .  A
C2311      H2320   1.082       .  S
C2312      C2315   1.490       .  S
C2312      C2313   1.402       .  A
C2313      C2314   1.401       .  A
C2313      H2321   1.083       .  S
C2314      H2322   1.081       .  S
C2315      H2323   1.087       .  S
C2315      C2316   1.346       .  D
C2316      H2324   1.086       .  S
C2317      H2325   1.087       .  S
C2317      C2318   1.345       .  D
C2318      H2326   1.085       .  S
C2327      C2335   1.484       .  S
C2327      C2328   1.409       .  A
C2327      C2332   1.402       .  A
C2328      C2329   1.406       .  A
C2328      H2337   1.081       .  S
C2329      C2330   1.409   1_455  A
C2329      H2338   1.081   1_455  S
C2330      C2333   1.485       .  S
C2330      C2331   1.402   1_655  A
C2331      C2332   1.391       .  A
C2331      H2339   1.084       .  S
C2332      H2340   1.084       .  S
C2333      H2341   1.087       .  S
C2333      C2334   1.349       .  D
C2334      H2342   1.085       .  S
C2335      H2343   1.087       .  S
C2335      C2336   1.349       .  D
C2336      H2344   1.085       .  S
C2345      C2353   1.483       .  S
C2345      C2346   1.405       .  A
C2345      C2350   1.405       .  A
C2346      C2347   1.396       .  A
C2346      H2355   1.084       .  S
C2347      C2348   1.405       .  A
C2347      H2356   1.080       .  S
C2348      C2351   1.484   1_556  S
C2348      C2349   1.406       .  A
C2349      C2350   1.396       .  A
C2349      H2357   1.084       .  S
C2350      H2358   1.080       .  S
C2351      H2359   1.087       .  S
C2351      C2352   1.351       .  D
C2352      H2360   1.083       .  S
C2353      H2361   1.087       .  S
C2353      C2354   1.350       .  D
C2354      H2362   1.083       .  S
C2363      C2371   1.485       .  S
C2363      C2364   1.405       .  A
C2363      C2368   1.406       .  A
C2364      C2365   1.396       .  A
C2364      H2373   1.084       .  S
C2365      C2366   1.405       .  A
C2365      H2374   1.080       .  S
C2366      C2369   1.484       .  S
C2366      C2367   1.405       .  A
C2367      C2368   1.397       .  A
C2367      H2375   1.084       .  S
C2368      H2376   1.080       .  S
C2369      H2377   1.087       .  S
C2369      C2370   1.349       .  D
C2370      H2378   1.084       .  S
C2371      H2379   1.087       .  S
C2371      C2372   1.349       .  D
C2372      H2380   1.083       .  S
C2381      C2389   1.486       .  S
C2381      C2382   1.406       .  A
C2381      C2386   1.405       .  A
C2382      C2383   1.399       .  A
C2382      H2391   1.084   1_556  S
C2383      C2384   1.406       .  A
C2383      H2392   1.080   1_556  S
C2384      C2387   1.489       .  S
C2384      C2385   1.406       .  A
C2385      C2386   1.398       .  A
C2385      H2393   1.083       .  S
C2386      H2394   1.081       .  S
C2387      H2395   1.087       .  S
C2387      C2388   1.351       .  D
C2388      H2396   1.083       .  S
C2389      H2397   1.087       .  S
C2389      C2390   1.351       .  D
C2390      H2398   1.084       .  S
C2399      C2407   1.490       .  S
C2399      C2400   1.402       .  A
C2399      C2404   1.409       .  A
C2400      C2401   1.394       .  A
C2400      H2409   1.084       .  S
C2401      C2402   1.402       .  A
C2401      H2410   1.084       .  S
C2402      C2405   1.491       .  S
C2402      C2403   1.410       .  A
C2403      C2404   1.407       .  A
C2403      H2411   1.081       .  S
C2404      H2412   1.081       .  S
C2405      H2413   1.087       .  S
C2405      C2406   1.348       .  D
C2406      H2414   1.084       .  S
C2407      H2415   1.087       .  S
C2407      C2408   1.349       .  D
C2408      H2416   1.085       .  S
C2417      C2425   1.492       .  S
C2417      C2418   1.403       .  A
C2417      C2422   1.409       .  A
C2418      C2419   1.403       .  A
C2418      H2427   1.083       .  S
C2419      C2420   1.410       .  A
C2419      H2428   1.082   1_455  S
C2420      C2423   1.492   1_455  S
C2420      C2421   1.402       .  A
C2421      C2422   1.400       .  A
C2421      H2429   1.083       .  S
C2422      H2430   1.082       .  S
C2423      H2431   1.087       .  S
C2423      C2424   1.346       .  D
C2424      H2432   1.086       .  S
C2425      H2433   1.087       .  S
C2425      C2426   1.346       .  D
C2426      H2434   1.086       .  S
C2435      C2443   1.496       .  S
C2435      C2436   1.406       .  A
C2435      C2440   1.408       .  A
C2436      C2437   1.403       .  A
C2436      H2445   1.083       .  S
C2437      C2438   1.410       .  A
C2437      H2446   1.080       .  S
C2438      C2441   1.497       .  S
C2438      C2439   1.406       .  A
C2439      C2440   1.400       .  A
C2439      H2447   1.083       .  S
C2440      H2448   1.081       .  S
C2441      H2449   1.087       .  S
C2441      C2442   1.350       .  D
C2442      H2450   1.084   1_554  S
C2443      H2451   1.087       .  S
C2443      C2444   1.347       .  D
C2444      H2452   1.085       .  S
C2453      C2461   1.489       .  S
C2453      C2454   1.408       .  A
C2453      C2458   1.405       .  A
C2454      C2455   1.402       .  A
C2454      H2463   1.083       .  S
C2455      C2456   1.405       .  A
C2455      H2464   1.082       .  S
C2456      C2459   1.485       .  S
C2456      C2457   1.405       .  A
C2457      C2458   1.396       .  A
C2457      H2465   1.084       .  S
C2458      H2466   1.080       .  S
C2459      H2467   1.087       .  S
C2459      C2460   1.351       .  D
C2460      H2468   1.085       .  S
C2461      H2469   1.087       .  S
C2461      C2462   1.352       .  D
C2462      H2470   1.083       .  S
C2471      C2479   1.491       .  S
C2471      C2472   1.404       .  A
C2471      C2476   1.408       .  A
C2472      C2473   1.405       .  A
C2472      H2481   1.083       .  S
C2473      C2474   1.410       .  A
C2473      H2482   1.082       .  S
C2474      C2477   1.490       .  S
C2474      C2475   1.402       .  A
C2475      C2476   1.396       .  A
C2475      H2483   1.084       .  S
C2476      H2484   1.083       .  S
C2477      H2485   1.087       .  S
C2477      C2478   1.347       .  D
C2478      H2486   1.085       .  S
C2479      H2487   1.086       .  S
C2479      C2480   1.344       .  D
C2480      H2488   1.087       .  S
C2489      C2497   1.493       .  S
C2489      C2490   1.405       .  A
C2489      C2494   1.410       .  A
C2490      C2491   1.397       .  A
C2490      H2499   1.084       .  S
C2491      C2492   1.407   1_455  A
C2491      H2500   1.082   1_455  S
C2492      C2495   1.492       .  S
C2492      C2493   1.404   1_655  A
C2493      C2494   1.404       .  A
C2493      H2501   1.083   1_455  S
C2494      H2502   1.081       .  S
C2495      H2503   1.086       .  S
C2495      C2496   1.346       .  D
C2496      H2504   1.086       .  S
C2497      H2505   1.087       .  S
C2497      C2498   1.350       .  D
C2498      H2506   1.084       .  S
C2507      C2515   1.484       .  S
C2507      C2508   1.404       .  A
C2507      C2512   1.405       .  A
C2508      C2509   1.398       .  A
C2508      H2517   1.084       .  S
C2509      C2510   1.408       .  A
C2509      H2518   1.080       .  S
C2510      C2513   1.486       .  S
C2510      C2511   1.405       .  A
C2511      C2512   1.395       .  A
C2511      H2519   1.084       .  S
C2512      H2520   1.081       .  S
C2513      H2521   1.087       .  S
C2513      C2514   1.349       .  D
C2514      H2522   1.083       .  S
C2515      H2523   1.087       .  S
C2515      C2516   1.349       .  D
C2516      H2524   1.084       .  S
C2525      C2533   1.482       .  S
C2525      C2526   1.404       .  A
C2525      C2530   1.406       .  A
C2526      C2527   1.394       .  A
C2526      H2535   1.084       .  S
C2527      C2528   1.404       .  A
C2527      H2536   1.081       .  S
C2528      C2531   1.479       .  S
C2528      C2529   1.404       .  A
C2529      C2530   1.397       .  A
C2529      H2537   1.084       .  S
C2530      H2538   1.080       .  S
C2531      H2539   1.087       .  S
C2531      C2532   1.348       .  D
C2532      H2540   1.085       .  S
C2533      H2541   1.087       .  S
C2533      C2534   1.349       .  D
C2534      H2542   1.083       .  S
C2543      C2551   1.484       .  S
C2543      C2544   1.405       .  A
C2543      C2548   1.405       .  A
C2544      C2545   1.401       .  A
C2544      H2553   1.083       .  S
C2545      C2546   1.405       .  A
C2545      H2554   1.083       .  S
C2546      C2549   1.482       .  S
C2546      C2547   1.404       .  A
C2547      C2548   1.398       .  A
C2547      H2555   1.083       .  S
C2548      H2556   1.082       .  S
C2549      H2557   1.087       .  S
C2549      C2550   1.347       .  D
C2550      H2558   1.086       .  S
C2551      H2559   1.088       .  S
C2551      C2552   1.346       .  D
C2552      H2560   1.086       .  S
