geometry optimzed in LAMMPS
_audit_creation_date              2020-11-30 
_audit_creation_method            'lammps2cif' 
_symmetry_space_group_name_H-M    'P1' 
_symmetry_Int_Tables_number       1 
_symmetry_cell_setting            triclinic 
loop_ 
_symmetry_equiv_pos_as_xyz 
  x,y,z 
_cell_length_a                    36.288389914350745 
_cell_length_b                    36.269568046512084 
_cell_length_c                    39.98595783678463 
_cell_angle_alpha                 89.84691579205055 
_cell_angle_beta                  90.10964317439267 
_cell_angle_gamma                 89.74359479411727 
loop_ 
_atom_site_label 
_atom_site_type_symbol 
_atom_site_fract_x 
_atom_site_fract_y 
_atom_site_fract_z 
_atom_site_charge 
O1          O  0.89385566  0.11764440  0.72603565    -0.82300
C2          C  0.85118293  0.21411589  0.82839710     0.97060
O3          O  0.84485844  0.22045403  0.79758244    -0.71410
O4          O  0.90556798  0.21288184  0.76661243    -0.75010
Al5        Al  0.86081163  0.19205594  0.75823716     1.48980
C6          C  0.93635017  0.19818190  0.76205850     0.92310
O7          O  0.92847878  0.12707044  0.81355836    -0.81230
O8          O  0.82655458  0.09335743  0.79040193    -0.74780
Al9        Al  0.90870840  0.12379156  0.77053572     1.90120
O10         O  0.87860198  0.11219977  0.84111315    -0.73850
O11         O  0.79584524  0.16538695  0.79712156    -0.73700
O12         O  0.85381041  0.18121050  0.83902504    -0.79360
O13         O  0.81519093  0.17293433  0.74690249    -0.77570
O14         O  0.87063706  0.15161272  0.78115278    -1.13700
O15         O  0.87583866  0.17409042  0.71555687    -0.72900
C16         C  0.88499774  0.14243235  0.70558708     0.97820
C17         C  0.91351904  0.11567095  0.83988284     0.94220
Al18       Al  0.84060138  0.13839230  0.81433688     1.55560
O19         O  0.94001522  0.16371581  0.75913311    -0.77520
C20         C  0.79125211  0.17945605  0.76815263     0.98390
C21         C  0.85022883  0.07027380  0.77920462     0.93270
O22         O  0.88425202  0.07814006  0.77950307    -0.82840
O23         O  0.63638115  0.31720269  0.79606210    -0.82300
C24         C  0.58641135  0.37908012  0.67479971     0.97060
O25         O  0.58006586  0.39130594  0.70358079    -0.71410
O26         O  0.55102394  0.33539122  0.73471851    -0.75010
Al27       Al  0.58901497  0.37015703  0.74613743     1.48980
C28         C  0.55092662  0.30309501  0.74650665     0.92310
O29         O  0.61439653  0.26857998  0.71383991    -0.81230
O30         O  0.69887852  0.33456640  0.72679036    -0.74780
Al31       Al  0.62510499  0.29472605  0.75445659     1.90120
O32         O  0.65303531  0.29893986  0.68145066    -0.73850
O33         O  0.66167157  0.40006633  0.71467477    -0.73700
O34         O  0.61520599  0.36012847  0.66978488    -0.79360
O35         O  0.62347718  0.40677220  0.75715694    -0.77570
O36         O  0.62376765  0.33813302  0.73380152    -1.13700
O37         O  0.59048343  0.35694062  0.79272985    -0.72900
C38         C  0.61447408  0.33972773  0.80987071     0.97820
C39         C  0.63295621  0.27089451  0.68702797     0.94220
Al40       Al  0.65485554  0.34819184  0.70078606     1.55560
O41         O  0.57572643  0.29326672  0.76618420    -0.77520
C42         C  0.64936376  0.41888236  0.73928510     0.98390
C43         C  0.70153179  0.30345702  0.74144011     0.93270
O44         O  0.67366127  0.28554489  0.74888319    -0.82840
O45         O  0.57516118  0.37382223  0.96369567    -0.82300
C46         C  0.63144855  0.33510064  0.08933165     0.97060
O47         O  0.64721875  0.32902634  0.06198785    -0.71410
O48         O  0.59104646  0.29710334  0.03298444    -0.75010
Al49       Al  0.62515249  0.33316416  0.01868069     1.48980
C50         C  0.55846882  0.29531687  0.02219432     0.92310
O51         O  0.52107565  0.36941234  0.04441745    -0.81230
O52         O  0.59295376  0.44501135  0.03197950    -0.74780
Al53       Al  0.55076526  0.37089263  0.00538818     1.90120
O54         O  0.55454629  0.40391142  0.07756855    -0.73850
O55         O  0.65585373  0.40550463  0.04685170    -0.73700
O56         O  0.61113960  0.36317475  0.09214760    -0.79360
O57         O  0.66113001  0.36688374  0.00444693    -0.77570
O58         O  0.59303872  0.36936617  0.02779211    -1.13700
O59         O  0.61218824  0.32729774  0.97249478    -0.72900
C60         C  0.59704056  0.34979258  0.95264733     0.97820
C61         C  0.52480033  0.38724492  0.07124118     0.94220
Al62       Al  0.60335714  0.40189157  0.05956985     1.55560
O63         O  0.54506790  0.31967889  0.00324541    -0.77520
C64         C  0.67406490  0.39252897  0.02215103     0.98390
C65         C  0.56435987  0.44836158  0.01378128     0.93270
O66         O  0.54710548  0.42091152  0.00373260    -0.82840
O67         O  0.36972079  0.63131938  0.03928612    -0.82300
C68         C  0.47301790  0.59721883  0.93805229     0.97060
O69         O  0.47827079  0.59334296  0.96927720    -0.71410
O70         O  0.46643915  0.65198730  0.00214487    -0.75010
Al71       Al  0.44786851  0.60558121  0.00786688     1.48980
C72         C  0.45039296  0.68135938  0.00963306     0.92310
O73         O  0.38310390  0.67362868  0.95472454    -0.81230
O74         O  0.35145259  0.56974850  0.97059947    -0.74780
Al75       Al  0.37776142  0.65069378  0.99619366     1.90120
O76         O  0.37212055  0.62533473  0.92346106    -0.73850
O77         O  0.42375469  0.54126403  0.96539022    -0.73700
O78         O  0.44066158  0.59999003  0.92631612    -0.79360
O79         O  0.43144109  0.55811540  0.01646207    -0.77570
O80         O  0.40785306  0.61459040  0.98427533    -1.13700
O81         O  0.42728690  0.61727486  0.05021992    -0.72900
C82         C  0.39474523  0.62320909  0.05987374     0.97820
C83         C  0.37565869  0.66012913  0.92656906     0.94220
Al84       Al  0.39703852  0.58603995  0.94932020     1.55560
O85         O  0.41568416  0.68303504  0.01199224    -0.77520
C86         C  0.43849697  0.53577238  0.99384932     0.98390
C87         C  0.32654502  0.59200617  0.98059466     0.93270
O88         O  0.33334811  0.62604543  0.98329648    -0.82840
O89         O  0.13099586  0.81107993  0.29917319    -0.82300
C90         C  0.08529914  0.87548508  0.17765180     0.97060
O91         O  0.07892267  0.88727832  0.20661551    -0.71410
O92         O  0.04844187  0.83080618  0.23595440    -0.75010
Al93       Al  0.08605468  0.86376639  0.24876307     1.48980
C94         C  0.04642755  0.79917053  0.24877157     0.92310
O95         O  0.11658734  0.76312840  0.21592345    -0.81230
O96         O  0.19646816  0.83317195  0.23103175    -0.74780
Al97       Al  0.12335522  0.78915476  0.25656882     1.90120
O98         O  0.15371945  0.79622032  0.18415852    -0.73850
O99         O  0.15675095  0.89781291  0.21868168    -0.73700
O100        O  0.11360896  0.85582257  0.17276160    -0.79360
O101        O  0.12062741  0.89801179  0.26267047    -0.77570
O102        O  0.12117099  0.83264666  0.23634635    -1.13700
O103        O  0.08416321  0.84888063  0.29445778    -0.72900
C104        C  0.10810415  0.83296082  0.31231030     0.97820
C105        C  0.13487417  0.76727643  0.18931817     0.94220
Al106      Al  0.15287870  0.84509383  0.20428679     1.55560
O107        O  0.07296063  0.78456846  0.26400662    -0.77520
C108        C  0.14286166  0.91446422  0.24390419     0.98390
C109        C  0.20015387  0.80253446  0.24624434     0.93270
O110        O  0.17293675  0.78349682  0.25374709    -0.82840
O111        O  0.39223686  0.61930282  0.22090326    -0.82300
C112        C  0.34953927  0.71424484  0.32386877     0.97060
O113        O  0.34195176  0.72038064  0.29328408    -0.71410
O114        O  0.40065392  0.71565341  0.25956980    -0.75010
Al115      Al  0.35659261  0.69243736  0.25345804     1.48980
C116        C  0.43230885  0.70293063  0.25548905     0.92310
O117        O  0.42912405  0.63166730  0.30720042    -0.81230
O118        O  0.32829414  0.59245862  0.28665262    -0.74780
Al119      Al  0.40844283  0.62691727  0.26476503     1.90120
O120        O  0.38095766  0.61358521  0.33563969    -0.73850
O121        O  0.29475844  0.66298888  0.29539861    -0.73700
O122        O  0.35335196  0.68145772  0.33461568    -0.79360
O123        O  0.31101295  0.67134843  0.24451596    -0.77570
O124        O  0.36932235  0.65277412  0.27627234    -1.13700
O125        O  0.36998226  0.67430738  0.21057588    -0.72900
C126        C  0.38020197  0.64296046  0.20065709     0.97820
C127        C  0.41543086  0.61952185  0.33380519     0.94220
Al128      Al  0.34115021  0.63804756  0.31038473     1.55560
O129        O  0.43790992  0.66864723  0.25244134    -0.77520
C130        C  0.28855356  0.67785334  0.26712758     0.98390
C131        C  0.35276442  0.57051963  0.27492686     0.93270
O132        O  0.38639729  0.58009997  0.27456484    -0.82840
O133        O  0.87366765  0.13549564  0.54363469    -0.82300
C134        C  0.97047525  0.09755678  0.43863143     0.97060
O135        O  0.97628623  0.08999415  0.46933187    -0.71410
O136        O  0.96867227  0.14707100  0.50522882    -0.75010
Al137      Al  0.94718049  0.10222084  0.50950094     1.48980
C138        C  0.95444225  0.17820047  0.50841638     0.92310
O139        O  0.88145966  0.17435021  0.45738298    -0.81230
O140        O  0.84879833  0.07148072  0.47343042    -0.74780
Al141      Al  0.87940950  0.15210945  0.49940990     1.90120
O142        O  0.86837279  0.12630678  0.42694164    -0.73850
O143        O  0.92044601  0.04111136  0.46538283    -0.73700
O144        O  0.93762432  0.10159128  0.42807639    -0.79360
O145        O  0.92759223  0.05567685  0.51688002    -0.77570
O146        O  0.90711497  0.11448505  0.48673350    -1.13700
O147        O  0.92885612  0.11368729  0.55269905    -0.72900
C148        C  0.89808175  0.12438474  0.56351544     0.97820
C149        C  0.87134635  0.16097955  0.43002853     0.94220
Al150      Al  0.89418751  0.08705325  0.45141240     1.55560
O151        O  0.92003367  0.18315830  0.51048379    -0.77520
C152        C  0.93479015  0.03414151  0.49369781     0.98390
C153        C  0.82557685  0.09389590  0.48632610     0.93270
O154        O  0.83374987  0.12754389  0.49061691    -0.82840
O155        O  0.07242844  0.87266308  0.46648152    -0.82300
C156        C  0.13138472  0.83623117  0.59186146     0.97060
O157        O  0.14437571  0.82658553  0.56419645    -0.71410
O158        O  0.08949421  0.79405535  0.53398467    -0.75010
Al159      Al  0.12366120  0.83120196  0.52089130     1.48980
C160        C  0.05823798  0.79153373  0.52050999     0.92310
O161        O  0.02102305  0.86367354  0.54889487    -0.81230
O162        O  0.09005393  0.94333611  0.53170043    -0.74780
Al163      Al  0.04884414  0.86788395  0.50858306     1.90120
O164        O  0.05318032  0.90227520  0.57958369    -0.73850
O165        O  0.15421260  0.90635063  0.54663880    -0.73700
O166        O  0.11275056  0.86542497  0.59429615    -0.79360
O167        O  0.16013157  0.86432625  0.50723201    -0.77570
O168        O  0.09171565  0.86739786  0.53008385    -1.13700
O169        O  0.11111829  0.82705180  0.47466491    -0.72900
C170        C  0.09483599  0.84910333  0.45509694     0.97820
C171        C  0.02427576  0.88325616  0.57489936     0.94220
Al172      Al  0.10221277  0.90164454  0.56054193     1.55560
O173        O  0.04461999  0.81740030  0.50377003    -0.77520
C174        C  0.17255325  0.89165908  0.52288352     0.98390
C175        C  0.05996726  0.94556029  0.51558687     0.93270
O176        O  0.04228625  0.91748034  0.50819770    -0.82840
O177        O  0.10861562  0.37074088  0.72123304    -0.82300
C178        C  0.14523798  0.27956502  0.83072676     0.97060
O179        O  0.14997043  0.27139195  0.80020373    -0.71410
O180        O  0.08871776  0.28016478  0.77146168    -0.75010
Al181      Al  0.13400691  0.29698261  0.75983264     1.48980
C182        C  0.05900831  0.29455505  0.76234914     0.92310
O183        O  0.06872994  0.36727108  0.80719377    -0.81230
O184        O  0.17151112  0.39814940  0.78603321    -0.74780
Al185      Al  0.09011003  0.36800135  0.76527736     1.90120
O186        O  0.11760020  0.38147469  0.83687852    -0.73850
O187        O  0.20084205  0.32561837  0.79549225    -0.73700
O188        O  0.14363251  0.31298063  0.83969266    -0.79360
O189        O  0.18021888  0.31226152  0.74617407    -0.77570
O190        O  0.12662495  0.33968069  0.77926798    -1.13700
O191        O  0.11797163  0.31130494  0.71603773    -0.72900
C192        C  0.11314499  0.34274929  0.70322735     0.97820
C193        C  0.08278000  0.37660103  0.83463077     0.94220
Al194      Al  0.15658784  0.35422808  0.81193994     1.55560
O195        O  0.05727215  0.32826065  0.75425729    -0.77520
C196        C  0.20481750  0.30873682  0.76764424     0.98390
C197        C  0.14844779  0.42118407  0.77361552     0.93270
O198        O  0.11450610  0.41353178  0.77343849    -0.82840
O199        O  0.36602407  0.17171027  0.79549846    -0.82300
C200        C  0.41155610  0.11155515  0.67278069     0.97060
O201        O  0.41892419  0.09995173  0.70152634    -0.71410
O202        O  0.44737842  0.15808442  0.72963560    -0.75010
Al203      Al  0.41193327  0.12246738  0.74343443     1.48980
C204        C  0.44731990  0.19057553  0.74081560     0.92310
O205        O  0.37808255  0.22419354  0.71389171    -0.81230
O206        O  0.29924168  0.15532510  0.72546685    -0.74780
Al207      Al  0.37279625  0.19605350  0.75387568     1.90120
O208        O  0.34445223  0.19000283  0.68017985    -0.73850
O209        O  0.33839951  0.09023580  0.71578324    -0.73700
O210        O  0.38250257  0.13020070  0.66837121    -0.79360
O211        O  0.37928953  0.08536396  0.75671029    -0.77570
O212        O  0.37529323  0.15321848  0.73237734    -1.13700
O213        O  0.41436272  0.13619283  0.78944973    -0.72900
C214        C  0.38962147  0.14986070  0.80782830     0.97820
C215        C  0.36127605  0.21983586  0.68642553     0.94220
Al216      Al  0.34360841  0.14179712  0.70011933     1.55560
O217        O  0.42315946  0.20096436  0.76103060    -0.77520
C218        C  0.35256231  0.07236062  0.74035335     0.98390
C219        C  0.29610877  0.18530043  0.74168877     0.93270
O220        O  0.32366617  0.20196966  0.75173547    -0.82840
O221        O  0.92205560  0.60399862  0.46541608    -0.82300
C222        C  0.86601471  0.66203828  0.58607765     0.97060
O223        O  0.85710469  0.67127680  0.55696926    -0.71410
O224        O  0.91137801  0.69444356  0.52159005    -0.75010
Al225      Al  0.87415901  0.65766213  0.51448991     1.48980
C226        C  0.94194226  0.69328948  0.50680995     0.92310
O227        O  0.97544659  0.63001028  0.54453549    -0.81230
O228        O  0.90763059  0.54670996  0.53874700    -0.74780
Al229      Al  0.94726895  0.61739752  0.50540567     1.90120
O230        O  0.94305430  0.59640181  0.58020560    -0.73850
O231        O  0.84322492  0.58413242  0.54760869    -0.73700
O232        O  0.88153679  0.63150983  0.59146779    -0.79360
O233        O  0.83472388  0.62519979  0.50745022    -0.77570
O234        O  0.90471651  0.62180355  0.52740887    -1.13700
O235        O  0.88430115  0.65162990  0.46783575    -0.72900
C236        C  0.89927521  0.62575670  0.45139822     0.97820
C237        C  0.97181842  0.61483025  0.57309233     0.94220
Al238      Al  0.89428718  0.59209145  0.56162169     1.55560
O239        O  0.95042290  0.66568734  0.49002053    -0.77520
C240        C  0.82373110  0.59779006  0.52406125     0.98390
C241        C  0.93865525  0.54232237  0.52491984     0.93270
O242        O  0.95606987  0.56902776  0.51394569    -0.82840
O243        O  0.12489540  0.35179848  0.54274347    -0.82300
C244        C  0.02622271  0.38430992  0.43611071     0.97060
O245        O  0.01934262  0.38527211  0.46706873    -0.71410
O246        O  0.03664867  0.32330948  0.49202948    -0.75010
Al247      Al  0.04796909  0.36992666  0.50549921     1.48980
C248        C  0.05453650  0.29492672  0.49954544     0.92310
O249        O  0.12541349  0.31337237  0.45591700    -0.81230
O250        O  0.14544927  0.41779797  0.47569468    -0.74780
Al251      Al  0.12366776  0.33405378  0.49834482     1.90120
O252        O  0.12924270  0.36420113  0.42600231    -0.73850
O253        O  0.07164547  0.44052565  0.47165163    -0.73700
O254        O  0.05936563  0.38487871  0.42627113    -0.79360
O255        O  0.05687944  0.41748439  0.52038090    -0.77570
O256        O  0.09111184  0.36795256  0.48534000    -1.13700
O257        O  0.06495519  0.35387187  0.54849904    -0.72900
C258        C  0.09681914  0.35264846  0.56114358     0.97820
C259        C  0.13079661  0.32921996  0.42837567     0.94220
Al260      Al  0.10121839  0.39967329  0.45269611     1.55560
O261        O  0.08784337  0.29653592  0.50876689    -0.77520
C262        C  0.05469115  0.44308655  0.49946914     0.98390
C263        C  0.17147703  0.39718529  0.48638620     0.93270
O264        O  0.16626703  0.36314701  0.49052744    -0.82840
O265        O  0.62372482  0.85275376  0.04205557    -0.82300
C266        C  0.52843091  0.89248946  0.93656531     0.97060
O267        O  0.52122564  0.89722998  0.96738495    -0.71410
O268        O  0.52845664  0.83755676  0.99996169    -0.75010
Al269      Al  0.54873984  0.88285273  0.00762025     1.48980
C270        C  0.54246967  0.80728842  0.00790971     0.92310
O271        O  0.61248233  0.81376412  0.95603412    -0.81230
O272        O  0.64855606  0.91595509  0.97680536    -0.74780
Al273      Al  0.61708142  0.83493675  0.99840972     1.90120
O274        O  0.62956848  0.86283385  0.92772452    -0.73850
O275        O  0.57709034  0.94728910  0.96784822    -0.73700
O276        O  0.56159639  0.88947232  0.92699449    -0.79360
O277        O  0.56696441  0.92909230  0.01811737    -0.77570
O278        O  0.58962159  0.87280374  0.98606122    -1.13700
O279        O  0.56639191  0.86938455  0.05085813    -0.72900
C280        C  0.59835061  0.86231934  0.06164402     0.97820
C281        C  0.62250771  0.82848837  0.92905877     0.94220
Al282      Al  0.60385012  0.90200889  0.95253186     1.55560
O283        O  0.57690961  0.80399150  0.01193722    -0.77520
C284        C  0.56129421  0.95230736  0.99585972     0.98390
C285        C  0.67154952  0.89202800  0.98778406     0.93270
O286        O  0.66310183  0.85812939  0.98810283    -0.82840
O287        O  0.42133741  0.10711883  0.96298128    -0.82300
C288        C  0.36654361  0.15882522  0.08668001     0.97060
O289        O  0.35898449  0.16982337  0.05781707    -0.71410
O290        O  0.41532392  0.19358124  0.02463899    -0.75010
Al291      Al  0.37635386  0.15900470  0.01496638     1.48980
C292        C  0.44638741  0.19135687  0.01059529     0.92310
O293        O  0.47674505  0.12560992  0.04238361    -0.81230
O294        O  0.40689172  0.04522736  0.03348841    -0.74780
Al295      Al  0.44758555  0.11686227  0.00302999     1.90120
O296        O  0.44398513  0.09165400  0.07749229    -0.73850
O297        O  0.34320700  0.08412098  0.04361709    -0.73700
O298        O  0.38264641  0.12820501  0.09061097    -0.79360
O299        O  0.33613537  0.12831342  0.00589361    -0.77570
O300        O  0.40565843  0.12122820  0.02578066    -1.13700
O301        O  0.38625684  0.15644901  0.96791294    -0.72900
C302        C  0.39984290  0.13090063  0.95015596     0.97820
C303        C  0.47344063  0.10909968  0.07035348     0.94220
Al304      Al  0.39465799  0.08989522  0.05858760     1.55560
O305        O  0.45201949  0.16596081  0.99047657    -0.77520
C306        C  0.32442575  0.09979884  0.02049526     0.98390
C307        C  0.43690465  0.04105687  0.01780279     0.93270
O308        O  0.45466670  0.06808735  0.00822689    -0.82840
O309        O  0.87796773  0.66803999  0.29907528    -0.82300
C310        C  0.91721333  0.61602637  0.17417891     0.97060
O311        O  0.93065786  0.62239356  0.20244827    -0.71410
O312        O  0.94259504  0.65675828  0.25713640    -0.75010
Al313      Al  0.90930890  0.61826063  0.24424996     1.48980
C314        C  0.93954781  0.69124801  0.25346953     0.92310
O315        O  0.84918390  0.71916771  0.21892007    -0.81230
O316        O  0.79900428  0.66404453  0.21607785    -0.74780
Al317      Al  0.86389897  0.68822381  0.25687400     1.90120
O318        O  0.85700938  0.68262709  0.17566121    -0.73850
O319        O  0.82766232  0.59268070  0.21816802    -0.73700
O320        O  0.88233963  0.61370849  0.17086308    -0.79360
O321        O  0.88324938  0.57408068  0.23336180    -0.77570
O322        O  0.87263763  0.64832985  0.23297793    -1.13700
O323        O  0.89268820  0.61077308  0.28835089    -0.72900
C324        C  0.88513695  0.63575019  0.30892265     0.97820
C325        C  0.85325983  0.71469258  0.18764768     0.94220
Al326      Al  0.84355918  0.63836108  0.19807094     1.55560
O327        O  0.90927417  0.70695077  0.24915335    -0.77520
C328        C  0.84929419  0.56774594  0.22903046     0.98390
C329        C  0.79341542  0.67725101  0.24519780     0.93270
O330        O  0.81706743  0.67139164  0.26713674    -0.82840
O331        O  0.60728472  0.87617886  0.22310393    -0.82300
C332        C  0.64153586  0.77467560  0.32697262     0.97060
O333        O  0.64410656  0.76860739  0.29580534    -0.71410
O334        O  0.58358171  0.78213570  0.26521937    -0.75010
Al335      Al  0.63050865  0.79820849  0.25686295     1.48980
C336        C  0.55477420  0.79916036  0.25739478     0.92310
O337        O  0.56709217  0.86880252  0.30874176    -0.81230
O338        O  0.67150003  0.89509048  0.29055765    -0.74780
Al339      Al  0.58900380  0.87090608  0.26683657     1.90120
O340        O  0.61660640  0.87745989  0.33925027    -0.73850
O341        O  0.69771174  0.82205053  0.29571475    -0.73700
O342        O  0.63996968  0.80749874  0.33773610    -0.79360
O343        O  0.67808900  0.81168157  0.24559222    -0.77570
O344        O  0.62424628  0.83965741  0.27913406    -1.13700
O345        O  0.61746993  0.81747793  0.21401057    -0.72900
C346        C  0.61330242  0.84997948  0.20331010     0.97820
C347        C  0.58156616  0.87732687  0.33620893     0.94220
Al348      Al  0.65434313  0.85033387  0.31302095     1.55560
O349        O  0.55434571  0.83375315  0.25350142    -0.77520
C350        C  0.70221706  0.80681740  0.26728961     0.98390
C351        C  0.65004842  0.92065854  0.28031497     0.93270
O352        O  0.61588088  0.91479725  0.27733186    -0.82840
O353        O  0.87217696  0.85177061  0.97419106    -0.82300
C354        C  0.96796463  0.89379279  0.07887718     0.97060
O355        O  0.97446391  0.89725482  0.04789224    -0.71410
O356        O  0.96551313  0.83427820  0.02173048    -0.75010
Al357      Al  0.94711138  0.87923845  0.00937548     1.48980
C358        C  0.95161033  0.80413693  0.01370574     0.92310
O359        O  0.87862297  0.81374724  0.06159350    -0.81230
O360        O  0.84651028  0.91616842  0.03999158    -0.74780
Al361      Al  0.87700563  0.83450995  0.01874720     1.90120
O362        O  0.86718832  0.86425099  0.09019351    -0.73850
O363        O  0.91745452  0.94634010  0.04428389    -0.73700
O364        O  0.93504768  0.89091251  0.08896142    -0.79360
O365        O  0.93059825  0.92518835  0.99503036    -0.77570
O366        O  0.90534253  0.87178452  0.03069944    -1.13700
O367        O  0.93108852  0.86162723  0.96666708    -0.72900
C368        C  0.89925666  0.85617610  0.95505045     0.97820
C369        C  0.86919525  0.82918737  0.08841131     0.94220
Al370      Al  0.89199880  0.90235747  0.06319482     1.55560
O371        O  0.91739298  0.80163417  0.00751774    -0.77520
C372        C  0.93303578  0.95049824  0.01591805     0.98390
C373        C  0.82257409  0.89273563  0.03071347     0.93270
O374        O  0.83130606  0.85913285  0.02747396    -0.82840
O375        O  0.07518634  0.12066941  0.05272132    -0.82300
C376        C  0.12637158  0.16355737  0.92867065     0.97060
O377        O  0.11845114  0.17756016  0.95642564    -0.71410
O378        O  0.08573572  0.18675438  0.01345030    -0.75010
Al379      Al  0.12361634  0.15426997  0.99798481     1.48980
C380        C  0.05106836  0.18489450  0.01122152     0.92310
O381        O  0.02256660  0.09661725  0.97195292    -0.81230
O382        O  0.07763149  0.04489102  0.96771557    -0.74780
Al383      Al  0.05377671  0.10896247  0.01043326     1.90120
O384        O  0.05960441  0.10402711  0.92889498    -0.73850
O385        O  0.14941219  0.07302831  0.97185983    -0.73700
O386        O  0.12839620  0.12866999  0.92539327    -0.79360
O387        O  0.16772044  0.12902733  0.98519641    -0.77570
O388        O  0.09343083  0.11809119  0.98642798    -1.13700
O389        O  0.13221954  0.13537367  0.04110252    -0.72900
C390        C  0.10777886  0.12719576  0.06199947     0.97820
C391        C  0.02735951  0.10081795  0.94066131     0.94220
Al392      Al  0.10366219  0.08964445  0.95132925     1.55560
O393        O  0.03505437  0.15531427  0.00488616    -0.77520
C394        C  0.17434861  0.09496471  0.98192644     0.98390
C395        C  0.06380306  0.03870026  0.99639529     0.93270
O396        O  0.07012815  0.06127363  0.01900169    -0.82840
O397        O  0.14385335  0.17154619  0.21605081    -0.82300
C398        C  0.08677894  0.11737989  0.33850282     0.97060
O399        O  0.07588009  0.11062764  0.30939615    -0.71410
O400        O  0.05577334  0.16565372  0.27397554    -0.75010
Al401      Al  0.08934977  0.12644695  0.26631600     1.48980
C402        C  0.05803305  0.19684395  0.26046626     0.92310
O403        O  0.12367879  0.22425277  0.29639166    -0.81230
O404        O  0.20333874  0.15178671  0.28547037    -0.74780
Al405      Al  0.13317122  0.19669791  0.25652194     1.90120
O406        O  0.15788657  0.18957019  0.33012155    -0.73850
O407        O  0.16227353  0.08894604  0.29650528    -0.73700
O408        O  0.11892886  0.12982975  0.34304139    -0.79360
O409        O  0.11814632  0.08495869  0.25872852    -0.77570
O410        O  0.12741331  0.15399180  0.27818667    -1.13700
O411        O  0.09485119  0.13612726  0.21960523    -0.72900
C412        C  0.12122435  0.14945907  0.20275676     0.97820
C413        C  0.14048941  0.21948099  0.32406409     0.94220
Al414      Al  0.15821306  0.14074209  0.31097638     1.55560
O415        O  0.08483668  0.20399511  0.24241244    -0.77520
C416        C  0.14456157  0.07066997  0.27459532     0.98390
C417        C  0.20817843  0.18271379  0.27118125     0.93270
O418        O  0.18158440  0.20228032  0.26332911    -0.82840
O419        O  0.39244549  0.37375314  0.28785168    -0.82300
C420        C  0.35227642  0.27320986  0.18697168     0.97060
O421        O  0.34787008  0.26771518  0.21816864    -0.71410
O422        O  0.40598184  0.27647399  0.25157080    -0.75010
Al423      Al  0.36087690  0.29754317  0.25723695     1.48980
C424        C  0.43661148  0.29074748  0.25696783     0.92310
O425        O  0.42933959  0.35871889  0.20216845    -0.81230
O426        O  0.32722656  0.39549592  0.22121608    -0.74780
Al427      Al  0.40876993  0.36489669  0.24425298     1.90120
O428        O  0.38069493  0.37453993  0.17296548    -0.73850
O429        O  0.29658917  0.32272121  0.21528119    -0.73700
O430        O  0.35482141  0.30569784  0.17541649    -0.79360
O431        O  0.31433962  0.31657469  0.26604380    -0.77570
O432        O  0.37100465  0.33697005  0.23345688    -1.13700
O433        O  0.37372276  0.31771880  0.29945475    -0.72900
C434        C  0.38300549  0.34957795  0.30859925     0.97820
C435        C  0.41554610  0.37056378  0.17540880     0.94220
Al436      Al  0.34176025  0.34933732  0.19906500     1.55560
O437        O  0.44017324  0.32531774  0.25862701    -0.77520
C438        C  0.29182797  0.30828284  0.24399590     0.98390
C439        C  0.35125664  0.41948147  0.22960768     0.93270
O440        O  0.38489897  0.41035049  0.23246827    -0.82840
O441        O  0.56976602  0.61475986  0.54830103    -0.82300
C442        C  0.63349223  0.65678605  0.42656954     0.97060
O443        O  0.64724860  0.66218940  0.45502430    -0.71410
O444        O  0.59299129  0.69543789  0.48521828    -0.75010
Al445      Al  0.62488697  0.65628391  0.49780041     1.48980
C446        C  0.56071434  0.69851954  0.49629418     0.92310
O447        O  0.52170947  0.62998890  0.46534819    -0.81230
O448        O  0.58875172  0.54723197  0.48103585    -0.74780
Al449      Al  0.54817618  0.62275769  0.50599213     1.90120
O450        O  0.55341426  0.59121615  0.43440200    -0.73850
O451        O  0.65384749  0.58325722  0.46780201    -0.73700
O452        O  0.61332021  0.62888841  0.42219026    -0.79360
O453        O  0.65920602  0.62039253  0.51098864    -0.77570
O454        O  0.59176532  0.62253696  0.48589553    -1.13700
O455        O  0.61079020  0.65854543  0.54388827    -0.72900
C456        C  0.59233921  0.63650510  0.56167133     0.97820
C457        C  0.52481876  0.61075472  0.43917980     0.94220
Al458      Al  0.60200316  0.59011063  0.45391218     1.55560
O459        O  0.54570489  0.67332022  0.51272519    -0.77520
C460        C  0.67182653  0.59475718  0.49315987     0.98390
C461        C  0.55831562  0.54512631  0.49666611     0.93270
O462        O  0.54050641  0.57333577  0.50406581    -0.82840
O463        O  0.37385704  0.35783751  0.46876968    -0.82300
C464        C  0.46748795  0.39431385  0.57661451     0.97060
O465        O  0.47437175  0.39988017  0.54589919    -0.71410
O466        O  0.46714952  0.34009957  0.51412735    -0.75010
Al467      Al  0.44741919  0.38552122  0.50568695     1.48980
C468        C  0.45300099  0.30999786  0.50622540     0.92310
O469        O  0.37962315  0.31655049  0.55413192    -0.81230
O470        O  0.34655504  0.41958734  0.53726771    -0.74780
Al471      Al  0.37810368  0.33914838  0.51244873     1.90120
O472        O  0.36617360  0.36474127  0.58483875    -0.73850
O473        O  0.41831702  0.44958621  0.54538186    -0.73700
O474        O  0.43440293  0.39064579  0.58615592    -0.79360
O475        O  0.42924007  0.43194946  0.49496455    -0.77570
O476        O  0.40584004  0.37582330  0.52646130    -1.13700
O477        O  0.43175338  0.37180007  0.46198879    -0.72900
C478        C  0.40041802  0.36528603  0.44986176     0.97820
C479        C  0.36959699  0.32998079  0.58155284     0.94220
Al480      Al  0.39176136  0.40422375  0.56060451     1.55560
O481        O  0.41873303  0.30738229  0.50065978    -0.77520
C482        C  0.43440622  0.45491541  0.51747863     0.98390
C483        C  0.32332174  0.39709919  0.52477205     0.93270
O484        O  0.33192965  0.36344854  0.52107131    -0.82840
O485        O  0.88829015  0.87035215  0.79454356    -0.82300
C486        C  0.85355264  0.77644292  0.68677898     0.97060
O487        O  0.84906375  0.76850513  0.71741260    -0.71410
O488        O  0.91064985  0.77812207  0.74726401    -0.75010
Al489      Al  0.86440522  0.79529494  0.75734895     1.48980
C490        C  0.93990256  0.79370954  0.75576575     0.92310
O491        O  0.92957326  0.86651494  0.70838706    -0.81230
O492        O  0.82546624  0.89546731  0.72689058    -0.74780
Al493      Al  0.90725343  0.86702864  0.75051191     1.90120
O494        O  0.88013035  0.87790085  0.67828790    -0.73850
O495        O  0.79802884  0.82360845  0.71975581    -0.73700
O496        O  0.85598946  0.80976818  0.67781308    -0.79360
O497        O  0.81743952  0.81044564  0.76958877    -0.77570
O498        O  0.87150453  0.83781807  0.73691862    -1.13700
O499        O  0.87943989  0.81100345  0.80089461    -0.72900
C500        C  0.88388586  0.84268191  0.81314570     0.97820
C501        C  0.91510434  0.87564727  0.68095816     0.94220
Al502      Al  0.84185959  0.85122891  0.70349323     1.55560
O503        O  0.94080619  0.82783459  0.76228856    -0.77520
C504        C  0.79359562  0.80664454  0.74741210     0.98390
C505        C  0.84792185  0.91982039  0.73711331     0.93270
O506        O  0.88158918  0.91194316  0.74140073    -0.82840
O507        O  0.62590394  0.67330146  0.71756258    -0.82300
C508        C  0.58995458  0.60768170  0.83975425     0.97060
O509        O  0.58430154  0.59386189  0.81143952    -0.71410
O510        O  0.54740139  0.64779060  0.78297321    -0.75010
Al511      Al  0.58728967  0.61700237  0.76890807     1.48980
C512        C  0.54261383  0.67952467  0.77081779     0.92310
O513        O  0.61020317  0.71953806  0.80105762    -0.81230
O514        O  0.69546897  0.65572566  0.78271686    -0.74780
Al515      Al  0.61804220  0.69446018  0.76014001     1.90120
O516        O  0.65284813  0.69070957  0.83061424    -0.73850
O517        O  0.66170817  0.58952088  0.79708701    -0.73700
O518        O  0.61696664  0.62913139  0.84369354    -0.79360
O519        O  0.62374291  0.58384991  0.75438397    -0.77570
O520        O  0.62041777  0.65088772  0.78000815    -1.13700
O521        O  0.58273541  0.63169550  0.72304035    -0.72900
C522        C  0.60433499  0.65008918  0.70474511     0.97820
C523        C  0.63093163  0.71775894  0.82641073     0.94220
Al524      Al  0.65425741  0.64152895  0.81111027     1.55560
O525        O  0.56719812  0.69524533  0.75414685    -0.77520
C526        C  0.64979460  0.57130241  0.77196197     0.98390
C527        C  0.69643362  0.68662647  0.76762802     0.93270
O528        O  0.66756122  0.70418628  0.76145379    -0.82840
O529        O  0.86622841  0.31564465  0.21573803    -0.82300
C530        C  0.90703165  0.37975430  0.33725087     0.97060
O531        O  0.91247784  0.39327374  0.30882539    -0.71410
O532        O  0.94491675  0.33552882  0.28275793    -0.75010
Al533      Al  0.90813426  0.36866937  0.26722096     1.48980
C534        C  0.94703325  0.30278822  0.27248989     0.92310
O535        O  0.87494073  0.26741141  0.29955454    -0.81230
O536        O  0.79628799  0.33621493  0.28286900    -0.74780
Al537      Al  0.87133467  0.29379734  0.25870831     1.90120
O538        O  0.83919449  0.30188516  0.33096128    -0.73850
O539        O  0.83458245  0.40110342  0.29313396    -0.73700
O540        O  0.87831819  0.36083744  0.34179387    -0.79360
O541        O  0.87428517  0.40348554  0.25141379    -0.77570
O542        O  0.87232216  0.33738656  0.27856168    -1.13700
O543        O  0.91308144  0.35269838  0.22199463    -0.72900
C544        C  0.89003956  0.33679116  0.20338014     0.97820
C545        C  0.85702539  0.27221599  0.32624299     0.94220
Al546      Al  0.83957710  0.34965745  0.30970756     1.55560
O547        O  0.92225782  0.28883986  0.25465366    -0.77520
C548        C  0.84781104  0.41743727  0.26741151     0.98390
C549        C  0.79396766  0.30614716  0.26665489     0.93270
O550        O  0.82202569  0.28854169  0.25878593    -0.82840
O551        O  0.60868389  0.11469311  0.28831180    -0.82300
C552        C  0.64542115  0.21439615  0.18438360     0.97060
O553        O  0.64955170  0.22036271  0.21542207    -0.71410
O554        O  0.58830251  0.20888856  0.24431279    -0.75010
Al555      Al  0.63415934  0.19129287  0.25426476     1.48980
C556        C  0.55895476  0.19334485  0.25244911     0.92310
O557        O  0.56970948  0.12247393  0.20133346    -0.81230
O558        O  0.67359800  0.09347181  0.22219452    -0.74780
Al559      Al  0.59105718  0.12014910  0.24398945     1.90120
O560        O  0.62023388  0.11258105  0.17232204    -0.73850
O561        O  0.70116160  0.16622334  0.21681495    -0.73700
O562        O  0.64357640  0.18164354  0.17357769    -0.79360
O563        O  0.68075808  0.17516377  0.26670319    -0.77570
O564        O  0.62714679  0.15011998  0.23208936    -1.13700
O565        O  0.61922192  0.17335579  0.29699564    -0.72900
C566        C  0.61413784  0.14118494  0.30788799     0.97820
C567        C  0.58521468  0.11477398  0.17409872     0.94220
Al568      Al  0.65764838  0.13857382  0.19886051     1.55560
O569        O  0.55745034  0.15878886  0.25668027    -0.77520
C570        C  0.70480034  0.18135653  0.24542141     0.98390
C571        C  0.65144238  0.06907779  0.23329404     0.93270
O572        O  0.61719424  0.07560233  0.23423090    -0.82840
O573        O  0.93387172  0.36777500  0.04904227    -0.82300
C574        C  0.87416805  0.32778968  0.92855326     0.97060
O575        O  0.88301098  0.31436128  0.95639677    -0.71410
O576        O  0.92202720  0.30531178  0.00987422    -0.75010
Al577      Al  0.88065066  0.33621234  0.99837477     1.48980
C578        C  0.95614740  0.30887065  0.00398355     0.92310
O579        O  0.97559407  0.40130330  0.96630746    -0.81230
O580        O  0.91804254  0.44791572  0.96758163    -0.74780
Al581      Al  0.94892213  0.38403899  0.00591937     1.90120
O582        O  0.93602514  0.38976289  0.92623513    -0.73850
O583        O  0.84820356  0.41624790  0.97348420    -0.73700
O584        O  0.86873939  0.36240400  0.92568331    -0.79360
O585        O  0.83427819  0.35978330  0.98975608    -0.77570
O586        O  0.90752449  0.37383865  0.98497520    -1.13700
O587        O  0.87588905  0.35380394  0.04259060    -0.72900
C588        C  0.90300930  0.35982775  0.06141298     0.97820
C589        C  0.96893808  0.39404137  0.93587877     0.94220
Al590      Al  0.89321906  0.40226215  0.95094637     1.55560
O591        O  0.96942263  0.33935565  0.99591911    -0.77520
C592        C  0.82543759  0.39331828  0.98567648     0.98390
C593        C  0.93283769  0.45371992  0.99610795     0.93270
O594        O  0.92968581  0.42960236  0.01808260    -0.82840
O595        O  0.12887461  0.63503866  0.96985034    -0.82300
C596        C  0.03257933  0.59635779  0.07374940     0.97060
O597        O  0.02586280  0.58994103  0.04305852    -0.71410
O598        O  0.03337946  0.64954027  0.00995653    -0.75010
Al599      Al  0.05412711  0.60409939  0.00312224     1.48980
C600        C  0.04774382  0.68009327  0.00405017     0.92310
O601        O  0.11814405  0.67335852  0.05554305    -0.81230
O602        O  0.15359867  0.57089418  0.03650012    -0.74780
Al603      Al  0.12244980  0.65205039  0.01339622     1.90120
O604        O  0.13355467  0.62480018  0.08505165    -0.73850
O605        O  0.08244625  0.54026928  0.04396718    -0.73700
O606        O  0.06560894  0.59890719  0.08378589    -0.79360
O607        O  0.07265668  0.55760968  0.99325013    -0.77570
O608        O  0.09481529  0.61436482  0.02539459    -1.13700
O609        O  0.07225874  0.61734289  0.96010646    -0.72900
C610        C  0.10404623  0.62542564  0.94985413     0.97820
C611        C  0.12671101  0.65922942  0.08316505     0.94220
Al612      Al  0.10844368  0.58558097  0.05955061     1.55560
O613        O  0.08220126  0.68342708  0.00060486    -0.77520
C614        C  0.06759396  0.53441875  0.01561659     0.98390
C615        C  0.17684295  0.59393087  0.02492742     0.93270
O616        O  0.16869035  0.62794973  0.02321057    -0.82840
O617        O  0.62749825  0.13578615  0.46972934    -0.82300
C618        C  0.52922793  0.09743558  0.57418086     0.97060
O619        O  0.52267814  0.09488951  0.54313276    -0.71410
O620        O  0.53444031  0.15703597  0.51577142    -0.75010
Al621      Al  0.55112165  0.11112325  0.50462735     1.48980
C622        C  0.54993226  0.18642015  0.50758036     0.92310
O623        O  0.62117652  0.17441464  0.55707828    -0.81230
O624        O  0.64991407  0.07074723  0.53631934    -0.74780
Al625      Al  0.62295141  0.15336267  0.51426222     1.90120
O626        O  0.63067199  0.12350951  0.58599227    -0.73850
O627        O  0.57772296  0.04298474  0.54059337    -0.73700
O628        O  0.56219241  0.09922567  0.58443670    -0.79360
O629        O  0.56571710  0.06437144  0.49118485    -0.77570
O630        O  0.59297840  0.11716932  0.52622816    -1.13700
O631        O  0.56847498  0.12700850  0.46208626    -0.72900
C632        C  0.60046045  0.13109780  0.45038853     0.97820
C633        C  0.62832602  0.15855365  0.58436160     0.94220
Al634      Al  0.60488836  0.08622318  0.55909657     1.55560
O635        O  0.58426277  0.18753844  0.50206248    -0.77520
C636        C  0.56178682  0.03943621  0.51229941     0.98390
C637        C  0.67477145  0.09308983  0.52676574     0.93270
O638        O  0.66768464  0.12710992  0.52380852    -0.82840
O639        O  0.42372466  0.87118136  0.54808902    -0.82300
C640        C  0.37203221  0.82934205  0.42211821     0.97060
O641        O  0.38250363  0.81505161  0.44902784    -0.71410
O642        O  0.41970752  0.80320118  0.50219267    -0.75010
Al643      Al  0.37785029  0.83383720  0.49193412     1.48980
C644        C  0.45388933  0.80972780  0.50092592     0.92310
O645        O  0.47207104  0.90063841  0.46663450    -0.81230
O646        O  0.41482696  0.94835170  0.46420775    -0.74780
Al647      Al  0.44298043  0.88546219  0.50580892     1.90120
O648        O  0.43430111  0.89091977  0.42426211    -0.73850
O649        O  0.34511719  0.91541469  0.47005065    -0.73700
O650        O  0.36589919  0.86385329  0.42082922    -0.79360
O651        O  0.33114994  0.85784676  0.48362114    -0.77570
O652        O  0.40395247  0.87337644  0.48189423    -1.13700
O653        O  0.37022187  0.84673292  0.53664977    -0.72900
C654        C  0.39313375  0.85855075  0.55743018     0.97820
C655        C  0.46666385  0.89577701  0.43543846     0.94220
Al656      Al  0.39043476  0.90253270  0.44771880     1.55560
O657        O  0.46613209  0.84172886  0.49975889    -0.77520
C658        C  0.32238867  0.89174281  0.48121678     0.98390
C659        C  0.42833396  0.95444675  0.49302989     0.93270
O660        O  0.42218574  0.93120960  0.51512511    -0.82840
O661        O  0.35768259  0.81972409  0.71268531    -0.82300
C662        C  0.41581941  0.87549152  0.83336793     0.97060
O663        O  0.42426021  0.88448739  0.80415501    -0.71410
O664        O  0.44751963  0.82787107  0.77050725    -0.75010
Al665      Al  0.41154533  0.86655934  0.76182923     1.48980
C666        C  0.44540867  0.79686408  0.75638247     0.92310
O667        O  0.38196932  0.76621174  0.79231568    -0.81230
O668        O  0.29996423  0.83677355  0.78404415    -0.74780
Al669      Al  0.37033431  0.79446598  0.75275917     1.90120
O670        O  0.34782566  0.79947699  0.82694502    -0.73850
O671        O  0.33946988  0.89997204  0.79453191    -0.73700
O672        O  0.38553850  0.85954531  0.83876286    -0.79360
O673        O  0.37967511  0.90687397  0.75358884    -0.77570
O674        O  0.37512947  0.83707145  0.77448459    -1.13700
O675        O  0.40623840  0.85591107  0.71520368    -0.72900
C676        C  0.37982310  0.84192471  0.69884159     0.97820
C677        C  0.36634443  0.77043997  0.82055940     0.94220
Al678      Al  0.34548332  0.84842241  0.80827439     1.55560
O679        O  0.41859911  0.79033654  0.73795598    -0.77520
C680        C  0.35328175  0.91908856  0.77091357     0.98390
C681        C  0.29538708  0.80606044  0.76953557     0.93270
O682        O  0.32210792  0.78730059  0.76046735    -0.82840
O683        O  0.11337053  0.61672091  0.78864911    -0.82300
C684        C  0.14821330  0.71845642  0.68773210     0.97060
O685        O  0.15543887  0.72345688  0.71845170    -0.71410
O686        O  0.09568052  0.71390232  0.75003800    -0.75010
Al687      Al  0.14120361  0.69351239  0.75701426     1.48980
C688        C  0.06536785  0.69910934  0.75618060     0.92310
O689        O  0.07207231  0.63087539  0.70403018    -0.81230
O690        O  0.17532212  0.59602628  0.71979608    -0.74780
Al691      Al  0.09454458  0.62513481  0.74546936     1.90120
O692        O  0.12000596  0.61829781  0.67278191    -0.73850
O693        O  0.20487952  0.66819623  0.71524806    -0.73700
O694        O  0.14513587  0.68615764  0.67621198    -0.79360
O695        O  0.18768846  0.67451670  0.76642750    -0.77570
O696        O  0.13132075  0.65379140  0.73362607    -1.13700
O697        O  0.12780772  0.67403370  0.79928648    -0.72900
C698        C  0.12160636  0.64163439  0.80909288     0.97820
C699        C  0.08528944  0.62264712  0.67600540     0.94220
Al700      Al  0.15959197  0.64235984  0.69876853     1.55560
O701        O  0.06287732  0.66457163  0.76021371    -0.77520
C702        C  0.21053944  0.68155239  0.74426203     0.98390
C703        C  0.15226556  0.57168606  0.72925738     0.93270
O704        O  0.11858619  0.58005611  0.73308516    -0.82840
C705        C  0.23394283  0.71454798  0.75035704    -0.05960
C706        C  0.23918947  0.74042078  0.72464767    -0.33390
C707        C  0.25219766  0.77605421  0.73170622     0.35860
C708        C  0.26063630  0.78653416  0.76487609    -0.06320
C709        C  0.25283257  0.76157024  0.79067204    -0.33290
C710        C  0.24090512  0.72574895  0.78366928     0.35760
H711        H  0.23253910  0.73331590  0.69904894     0.16130
O712        O  0.25979218  0.79960908  0.70571709    -0.60790
H713        H  0.26073716  0.76813191  0.81613813     0.16150
O714        O  0.23623452  0.70166562  0.80980680    -0.60890
H715        H  0.25986921  0.68795893  0.81157176     0.43140
H716        H  0.28358011  0.79094359  0.69633427     0.43100
C717        C  0.38463462  0.85672368  0.59320877    -0.05960
C718        C  0.39806062  0.88422568  0.61438483    -0.33390
C719        C  0.39434766  0.88095998  0.64895240     0.35860
C720        C  0.37736005  0.84950939  0.66277426    -0.06320
C721        C  0.36172077  0.82320399  0.64145099    -0.33290
C722        C  0.36516355  0.82668677  0.60679970     0.35760
H723        H  0.41219394  0.90796201  0.60412798     0.16130
O724        O  0.40754186  0.90858267  0.66902306    -0.60790
H725        H  0.34861881  0.79885172  0.65162997     0.16150
O726        O  0.35218180  0.79903788  0.58668247    -0.60890
H727        H  0.32604729  0.80552889  0.58224994     0.43140
H728        H  0.43462827  0.90486358  0.66977836     0.43100
C729        C  0.46007035  0.97999436  0.49850723    -0.05960
C730        C  0.47896984  0.99434101  0.47089773    -0.33390
C731        C  0.51359986  0.01097701  0.47465456     0.35860
C732        C  0.53063039  0.01339724  0.50660010    -0.06320
C733        C  0.51186060  0.99882151  0.53416999    -0.33290
C734        C  0.47705611  0.98262011  0.53048663     0.35760
H735        H  0.46748076  0.99163297  0.44599959     0.16130
O736        O  0.53063518  0.02481921  0.44671772    -0.60790
H737        H  0.52343557  0.00138582  0.55905086     0.16150
O738        O  0.46041680  0.96841333  0.55844535    -0.60890
H739        H  0.44425922  0.98846145  0.56681672     0.43140
H740        H  0.51743844  0.04815074  0.44144113     0.43100
C741        C  0.11183026  0.62574597  0.91399324    -0.05960
C742        C  0.13716491  0.65138677  0.90156731    -0.33390
C743        C  0.14206758  0.65560259  0.86728998     0.35860
C744        C  0.12165948  0.63373088  0.84496487    -0.06320
C745        C  0.09826896  0.60631722  0.85742644    -0.33290
C746        C  0.09290574  0.60254166  0.89175829     0.35760
H747        H  0.15206381  0.66937195  0.91839564     0.16130
O748        O  0.16599560  0.68194269  0.85589563    -0.60790
H749        H  0.08260103  0.58907099  0.84053821     0.16150
O750        O  0.06910361  0.57620961  0.90329347    -0.60890
H751        H  0.04418543  0.58726894  0.90089528     0.43140
H752        H  0.19019366  0.66925132  0.85449115     0.43100
C753        C  0.96356792  0.48020440  0.00104666    -0.05960
C754        C  0.98595983  0.48881049  0.97368075    -0.33390
C755        C  0.02148592  0.50301000  0.97830016     0.35860
C756        C  0.03560659  0.50927618  0.01088034    -0.06320
C757        C  0.01309873  0.50089726  0.03830051    -0.33290
C758        C  0.97750578  0.48680366  0.03365798     0.35760
H759        H  0.97679877  0.48262697  0.94851031     0.16130
O760        O  0.04237620  0.51068968  0.95060813    -0.60790
H761        H  0.02243203  0.50679619  0.06347158     0.16150
O762        O  0.95702539  0.47816218  0.06137432    -0.60890
H763        H  0.94207755  0.50051538  0.06599733     0.43140
H764        H  0.02998486  0.53199003  0.93971766     0.43100
C765        C  0.61106706  0.13563647  0.34383857    -0.05960
C766        C  0.64240707  0.12848744  0.36331744    -0.33390
C767        C  0.63964026  0.12658975  0.39824526     0.35860
C768        C  0.60507863  0.13177336  0.41373975    -0.06320
C769        C  0.57380843  0.13839819  0.39374052    -0.33290
C770        C  0.57668612  0.14043241  0.35909967     0.35760
H771        H  0.66902195  0.12496666  0.35147298     0.16130
O772        O  0.67058497  0.11898419  0.41681574    -0.60790
H773        H  0.54701424  0.14284753  0.40498369     0.16150
O774        O  0.54597157  0.14864362  0.34038001    -0.60890
H775        H  0.53641400  0.12450172  0.33276840     0.43140
H776        H  0.68279899  0.14311782  0.42007892     0.43100
C777        C  0.89940476  0.35558164  0.09797177    -0.05960
C778        C  0.86457229  0.34930840  0.11215787    -0.33390
C779        C  0.86093802  0.34256022  0.14647750     0.35860
C780        C  0.89238436  0.34249119  0.16709531    -0.06320
C781        C  0.92702284  0.34920885  0.15304687    -0.33290
C782        C  0.93079775  0.35560575  0.11890822     0.35760
H783        H  0.84005748  0.34936008  0.09664190     0.16130
O784        O  0.82651578  0.33758991  0.15980676    -0.60790
H785        H  0.95152954  0.34903367  0.16859369     0.16150
O786        O  0.96556197  0.36052771  0.10628099    -0.60890
H787        H  0.97029205  0.38735522  0.10815568     0.43140
H788        H  0.81812072  0.31343945  0.15116446     0.43100
C789        C  0.72831392  0.21448864  0.25119566    -0.05960
C790        C  0.74314726  0.23328675  0.22384592    -0.33390
C791        C  0.75799344  0.26874709  0.22743399     0.35860
C792        C  0.76005711  0.28570558  0.25924214    -0.06320
C793        C  0.74395451  0.26759481  0.28642321    -0.33290
C794        C  0.72840271  0.23245192  0.28276735     0.35760
H795        H  0.74346140  0.22027958  0.19957122     0.16130
O796        O  0.77397081  0.28534613  0.20024496    -0.60790
H797        H  0.74691868  0.27890007  0.31135388     0.16150
O798        O  0.71491927  0.21514705  0.31072741    -0.60890
H799        H  0.69106425  0.22748970  0.31553331     0.43140
H800        H  0.79705545  0.27133671  0.19610785     0.43100
C801        C  0.50869389  0.69994453  0.77388915    -0.05960
C802        C  0.50730454  0.72715334  0.79877111    -0.33390
C803        C  0.48828976  0.76024984  0.79312535     0.35860
C804        C  0.47061424  0.76596320  0.76225094    -0.06320
C805        C  0.47058856  0.73758536  0.73830796    -0.33290
C806        C  0.48872162  0.70458936  0.74425948     0.35760
H807        H  0.52346533  0.72392187  0.82135999     0.16130
O808        O  0.48679605  0.78635343  0.81784966    -0.60790
H809        H  0.45649989  0.74102863  0.71456183     0.16150
O810        O  0.49094657  0.67898731  0.71911242    -0.60890
H811        H  0.47283064  0.65971526  0.72515923     0.43140
H812        H  0.50908028  0.80167427  0.81461350     0.43100
C813        C  0.97262842  0.77088200  0.75877997    -0.05960
C814        C  0.96834863  0.73365284  0.76760634    -0.33390
C815        C  0.99831651  0.70974144  0.76738134     0.35860
C816        C  0.03315459  0.72324714  0.75845898    -0.06320
C817        C  0.03742884  0.76089852  0.75060575    -0.33290
C818        C  0.00743470  0.78471217  0.75082718     0.35760
H819        H  0.94148711  0.72288981  0.77417475     0.16130
O820        O  0.99314651  0.67346186  0.77587869    -0.60790
H821        H  0.06396272  0.77196944  0.74344761     0.16150
O822        O  0.01199747  0.82068272  0.74101754    -0.60890
H823        H  0.01919787  0.83404352  0.76160662     0.43140
H824        H  0.98567082  0.66114011  0.75482772     0.43100
C825        C  0.76808119  0.77480338  0.75143903    -0.05960
C826        C  0.76840341  0.75552261  0.78225313    -0.33390
C827        C  0.75037881  0.72178072  0.78616456     0.35860
C828        C  0.73010099  0.70706362  0.75958471    -0.06320
C829        C  0.73115737  0.72512266  0.72831169    -0.33290
C830        C  0.75008781  0.75847013  0.72403346     0.35760
H831        H  0.78294532  0.76654999  0.80366986     0.16130
O832        O  0.74947872  0.70546802  0.81712838    -0.60790
H833        H  0.71469599  0.71476467  0.70775697     0.16150
O834        O  0.74990801  0.77519281  0.69323721    -0.60890
H835        H  0.76989255  0.76290740  0.68049883     0.43140
H836        H  0.76913453  0.68640433  0.81660851     0.43100
C837        C  0.47767371  0.27831588  0.50329997    -0.05960
C838        C  0.51593304  0.28403547  0.50653262    -0.33390
C839        C  0.54034588  0.25448568  0.50660713     0.35860
C840        C  0.52648111  0.21872017  0.50359051    -0.06320
C841        C  0.48856502  0.21314038  0.49841285    -0.33290
C842        C  0.46412821  0.24258971  0.49845035     0.35760
H843        H  0.52709636  0.31144691  0.50985478     0.16130
O844        O  0.57718335  0.26074540  0.51171096    -0.60790
H845        H  0.47754987  0.18564488  0.49517560     0.16150
O846        O  0.42720335  0.23594800  0.49437353    -0.60890
H847        H  0.41779665  0.23076749  0.51717363     0.43140
H848        H  0.58748763  0.26526277  0.48912159     0.43100
C849        C  0.48114671  0.78055069  0.49961615    -0.05960
C850        C  0.51570276  0.78692527  0.51448649    -0.33390
C851        C  0.54438307  0.76198106  0.51022808     0.35860
C852        C  0.53851292  0.73072075  0.49070676    -0.06320
C853        C  0.50463165  0.72509556  0.47465720    -0.33290
C854        C  0.47564346  0.74952802  0.47950998     0.35760
H855        H  0.52024324  0.81110590  0.52980706     0.16130
O856        O  0.57671996  0.76660801  0.52750385    -0.60790
H857        H  0.49999844  0.70038473  0.46012355     0.16150
O858        O  0.44251253  0.74328918  0.46404488    -0.60890
H859        H  0.42853833  0.72741676  0.47972177     0.43140
H860        H  0.59378280  0.77828537  0.51133482     0.43100
C861        C  0.59641729  0.63750250  0.59832425    -0.05960
C862        C  0.62731378  0.65480445  0.61240066    -0.33390
C863        C  0.63068673  0.65871241  0.64700646     0.35860
C864        C  0.60286626  0.64510899  0.66819045    -0.06320
C865        C  0.57253732  0.62683898  0.65411722    -0.33290
C866        C  0.56919711  0.62286673  0.61957991     0.35760
H867        H  0.64888747  0.66565969  0.59652175     0.16130
O868        O  0.66158601  0.67523178  0.65977313    -0.60790
H869        H  0.55075258  0.61620191  0.66987599     0.16150
O870        O  0.53826696  0.60628435  0.60694387    -0.60890
H871        H  0.54410051  0.57954431  0.60667743     0.43140
H872        H  0.65646774  0.70209203  0.65865031     0.43100
C873        C  0.53804212  0.51113913  0.50373922    -0.05960
C874        C  0.52245428  0.50813971  0.53595748    -0.33390
C875        C  0.48758857  0.49226052  0.54092012     0.35860
C876        C  0.46750409  0.47886479  0.51338976    -0.06320
C877        C  0.48425331  0.48020153  0.48149308    -0.33290
C878        C  0.51923250  0.49533660  0.47674856     0.35760
H879        H  0.53579652  0.52152526  0.55692098     0.16130
O880        O  0.47298566  0.49116541  0.57252286    -0.60790
H881        H  0.47017299  0.46916359  0.45981950     0.16150
O882        O  0.53263362  0.49881631  0.44484483    -0.60890
H883        H  0.55022359  0.47803733  0.44218238     0.43140
H884        H  0.48750929  0.47219487  0.58471527     0.43100
C885        C  0.46802468  0.26594517  0.26068866    -0.05960
C886        C  0.46188724  0.22765501  0.25885346    -0.33390
C887        C  0.49121566  0.20312833  0.25733347     0.35860
C888        C  0.52714748  0.21692164  0.25799377    -0.06320
C889        C  0.53324519  0.25480696  0.26284375    -0.33290
C890        C  0.50399080  0.27937661  0.26395130     0.35760
H891        H  0.43427437  0.21656917  0.25733409     0.16130
O892        O  0.48439669  0.16626548  0.25304703    -0.60790
H893        H  0.56091646  0.26574802  0.26473067     0.16150
O894        O  0.51099869  0.31629537  0.26758108    -0.60890
H895        H  0.51648739  0.32538577  0.24472060     0.43140
H896        H  0.48207969  0.15608023  0.27598600     0.43100
C897        C  0.38541433  0.35762818  0.34411221    -0.05960
C898        C  0.41851129  0.37143667  0.35682588    -0.33390
C899        C  0.42368621  0.37485214  0.39120856     0.35860
C900        C  0.39512468  0.36476853  0.41333034    -0.06320
C901        C  0.36154897  0.35205099  0.40016398    -0.33290
C902        C  0.35666132  0.34829144  0.36579230     0.35760
H903        H  0.44101823  0.37805123  0.34008644     0.16130
O904        O  0.45731177  0.38641612  0.40276962    -0.60790
H905        H  0.33941064  0.34362432  0.41646217     0.16150
O906        O  0.32365290  0.33580153  0.35355078    -0.60890
H907        H  0.32534154  0.30852837  0.35465338     0.43140
H908        H  0.45500978  0.41355905  0.40490721     0.43100
C909        C  0.97851189  0.27969899  0.27921046    -0.05960
C910        C  0.01238460  0.29003001  0.26602942    -0.33390
C911        C  0.03900538  0.26324070  0.25989117     0.35860
C912        C  0.03122851  0.22576809  0.26699335    -0.06320
C913        C  0.99809311  0.21619763  0.28198115    -0.33290
C914        C  0.97206872  0.24296121  0.28877430     0.35760
H915        H  0.01700128  0.31815199  0.25784510     0.16130
O916        O  0.07132720  0.27370463  0.24494020    -0.60790
H917        H  0.99132098  0.18770660  0.28683553     0.16150
O918        O  0.93930124  0.23259207  0.30279261    -0.60890
H919        H  0.92652114  0.21797680  0.28535364     0.43140
H920        H  0.08667701  0.28395894  0.26317124     0.43100
C921        C  0.27021140  0.27370844  0.25004730    -0.05960
C922        C  0.26837982  0.26015285  0.28317959    -0.33390
C923        C  0.25544694  0.22465470  0.29048990     0.35860
C924        C  0.24318792  0.20148708  0.26472443    -0.06320
C925        C  0.24774787  0.21377029  0.23143031    -0.33290
C926        C  0.26030066  0.24965058  0.22398208     0.35760
H927        H  0.27694605  0.27735794  0.30387757     0.16130
O928        O  0.25077390  0.21446113  0.32327549    -0.60790
H929        H  0.23684257  0.19722691  0.21118146     0.16150
O930        O  0.26112042  0.26153534  0.19136384    -0.60890
H931        H  0.27493676  0.24248164  0.17879018     0.43140
H932        H  0.22808922  0.22740459  0.33066219     0.43100
C933        C  0.98138422  0.27784158  0.00785655    -0.05960
C934        C  0.96834255  0.24501522  0.02180120    -0.33390
C935        C  0.99168128  0.21486241  0.02511265     0.35860
C936        C  0.02852416  0.21761353  0.01443670    -0.06320
C937        C  0.04219216  0.25085804  0.00227991    -0.33290
C938        C  0.01894506  0.28099560  0.99882755     0.35760
H939        H  0.93995396  0.24247098  0.02981295     0.16130
O940        O  0.97837785  0.18286114  0.03888028    -0.60790
H941        H  0.07044457  0.25296365  0.99373175     0.16150
O942        O  0.03296194  0.31270321  0.98513691    -0.60890
H943        H  0.04390106  0.32632113  0.00418074     0.43140
H944        H  0.96333641  0.17129880  0.02105400     0.43100
C945        C  0.11652482  0.12788762  0.09783923    -0.05960
C946        C  0.14194848  0.15373023  0.10996796    -0.33390
C947        C  0.14552620  0.15994307  0.14432528     0.35860
C948        C  0.12348640  0.13998621  0.16695626    -0.06320
C949        C  0.10066344  0.11180228  0.15472659    -0.33290
C950        C  0.09683584  0.10591797  0.12050434     0.35760
H951        H  0.15745655  0.17074490  0.09273938     0.16130
O952        O  0.16863860  0.18725647  0.15516113    -0.60790
H953        H  0.08442004  0.09511808  0.17165268     0.16150
O954        O  0.07356073  0.07882000  0.10943370    -0.60890
H955        H  0.04843530  0.08956098  0.11095850     0.43140
H956        H  0.19272900  0.17489326  0.15891610     0.43100
C957        C  0.02372526  0.71221379  0.00262411    -0.05960
C958        C  0.03799715  0.74624253  0.01198005    -0.33390
C959        C  0.01480489  0.77630510  0.01597878     0.35860
C960        C  0.97648118  0.77258698  0.01002579    -0.06320
C961        C  0.96250933  0.73884509  0.99903516    -0.33290
C962        C  0.98584042  0.70861357  0.99543626     0.35760
H963        H  0.06707183  0.74930479  0.01750265     0.16130
O964        O  0.02997883  0.80879690  0.02668728    -0.60790
H965        H  0.93345944  0.73571515  0.99346375     0.16150
O966        O  0.97149409  0.67585952  0.98440714    -0.60890
H967        H  0.95960830  0.66461322  0.00426692     0.43140
H968        H  0.03853169  0.82140489  0.00609165     0.43100
C969        C  0.89448482  0.85274035  0.91891146    -0.05960
C970        C  0.86974534  0.87582911  0.90174602    -0.33390
C971        C  0.86612267  0.87318010  0.86695910     0.35860
C972        C  0.88659921  0.84648447  0.84946136    -0.06320
C973        C  0.91061343  0.82289901  0.86684525    -0.33290
C974        C  0.91514559  0.82634031  0.90130545     0.35760
H975        H  0.85382899  0.89627525  0.91524470     0.16130
O976        O  0.84245196  0.89648859  0.85036120    -0.60790
H977        H  0.92647873  0.80225445  0.85351738     0.16150
O978        O  0.93890418  0.80298683  0.91779286    -0.60890
H979        H  0.96327721  0.81519284  0.91673516     0.43140
H980        H  0.81912539  0.88255602  0.84813425     0.43100
C981        C  0.96273572  0.97801934  0.01013233    -0.05960
C982        C  0.98203151  0.99182432  0.03771817    -0.33390
C983        C  0.01645309  0.00863903  0.03382168     0.35860
C984        C  0.03239239  0.01285413  0.00162326    -0.06320
C985        C  0.01279328  0.99960918  0.97393820    -0.33290
C986        C  0.97857228  0.98221541  0.97792025     0.35760
H987        H  0.97136513  0.98786991  0.06276063     0.16130
O988        O  0.03389484  0.02158585  0.06186723    -0.60790
H989        H  0.02345798  0.00363480  0.94890875     0.16150
O990        O  0.96079275  0.96926483  0.95001586    -0.60890
H991        H  0.97431553  0.94653025  0.94358479     0.43140
H992        H  0.05043497  0.00126083  0.06915940     0.43100
C993        C  0.66309446  0.95852517  0.27171229    -0.05960
C994        C  0.67492998  0.96664289  0.23893157    -0.33390
C995        C  0.67538581  0.00335122  0.22673352     0.35860
C996        C  0.66361585  0.03266845  0.24726914    -0.06320
C997        C  0.65416828  0.02458598  0.28063130    -0.33290
C998        C  0.65382677  0.98816824  0.29279165     0.35760
H999        H  0.68093453  0.94425144  0.22187986     0.16130
O1000       O  0.68344787  0.00968189  0.19375212    -0.60790
H1001       H  0.64429632  0.04646913  0.29674415     0.16150
O1002       O  0.64074431  0.98154084  0.32438887    -0.60890
H1003       H  0.66301513  0.97912393  0.33864464     0.43140
H1004       H  0.70987607  0.01649615  0.19350802     0.43100
C1005       C  0.55563122  0.88760455  0.36364999    -0.05960
C1006       C  0.52063113  0.90111751  0.35438953    -0.33390
C1007       C  0.49232727  0.90526398  0.37768534     0.35860
C1008       C  0.49819411  0.89593188  0.41150537    -0.06320
C1009       C  0.53386610  0.88465901  0.42146003    -0.33290
C1010       C  0.56248846  0.88045622  0.39779137     0.35760
H1011       H  0.51463348  0.90751108  0.32844391     0.16130
O1012       O  0.45858278  0.91756175  0.36672756    -0.60790
H1013       H  0.53911516  0.87741720  0.44734096     0.16150
O1014       O  0.59596916  0.86679808  0.40795372    -0.60890
H1015       H  0.61096055  0.88882850  0.41322324     0.43140
H1016       H  0.45839474  0.94441652  0.37132981     0.43100
C1017       C  0.64132081  0.74313583  0.35109490    -0.05960
C1018       C  0.65829091  0.74708323  0.38238715    -0.33390
C1019       C  0.65794013  0.71849428  0.40610796     0.35860
C1020       C  0.63936751  0.68494408  0.39942264    -0.06320
C1021       C  0.62292172  0.68074724  0.36771011    -0.33290
C1022       C  0.62399668  0.70928587  0.34367074     0.35760
H1023       H  0.67206088  0.77263098  0.38857593     0.16130
O1024       O  0.67475925  0.72450666  0.43633325    -0.60790
H1025       H  0.60824480  0.65564912  0.36178656     0.16150
O1026       O  0.60685887  0.70419151  0.31343875    -0.60890
H1027       H  0.58176188  0.71467918  0.31621727     0.43140
H1028       H  0.70037002  0.71539682  0.43349786     0.43100
C1029       C  0.83614673  0.53026304  0.23732756    -0.05960
C1030       C  0.83848695  0.50256773  0.21312079    -0.33390
C1031       C  0.83831269  0.46519632  0.22242790     0.35860
C1032       C  0.83556935  0.45489610  0.25652956    -0.06320
C1033       C  0.82968846  0.48268262  0.28036430    -0.33290
C1034       C  0.83026898  0.52012895  0.27098699     0.35760
H1035       H  0.84342000  0.50988732  0.18722174     0.16130
O1036       O  0.84283196  0.43885714  0.19814959    -0.60790
H1037       H  0.82813571  0.47558635  0.30665780     0.16150
O1038       O  0.82876905  0.54661457  0.29536847    -0.60890
H1039       H  0.80308926  0.55605606  0.29479529     0.43140
H1040       H  0.86932139  0.43959682  0.19208588     0.43100
C1041       C  0.00188426  0.60158354  0.09829749    -0.05960
C1042       C  0.96571217  0.58908855  0.09183742    -0.33390
C1043       C  0.93707449  0.59411801  0.11548851     0.35860
C1044       C  0.94437287  0.61181150  0.14617681    -0.06320
C1045       C  0.98024109  0.62527218  0.15169514    -0.33290
C1046       C  0.00851118  0.62029568  0.12855712     0.35760
H1047       H  0.95973012  0.57493833  0.06864450     0.16130
O1048       O  0.90268492  0.58050034  0.10880769    -0.60790
H1049       H  0.98687409  0.63986006  0.17451701     0.16150
O1050       O  0.04239540  0.63513213  0.13553458    -0.60890
H1051       H  0.05482242  0.61691060  0.15032054     0.43140
H1052       H  0.88941396  0.60089152  0.09733885     0.43100
C1053       C  0.85306827  0.74701921  0.16467950    -0.05960
C1054       C  0.87404627  0.77861095  0.17191198    -0.33390
C1055       C  0.87766295  0.80724715  0.14819270     0.35860
C1056       C  0.85985623  0.80464760  0.11693144    -0.06320
C1057       C  0.83736105  0.77399006  0.11063999    -0.33290
C1058       C  0.83376114  0.74555520  0.13415085     0.35760
H1059       H  0.88928036  0.78013794  0.19519739     0.16130
O1060       O  0.90131761  0.83575408  0.15456476    -0.60790
H1061       H  0.82351318  0.77143380  0.08671946     0.16150
O1062       O  0.81200664  0.71587499  0.12661235    -0.60890
H1063       H  0.78805146  0.72101010  0.13760063     0.43140
H1064       H  0.88566833  0.85561274  0.16401665     0.43100
C1065       C  0.76646404  0.70764476  0.25166393    -0.05960
C1066       C  0.75064313  0.72634917  0.22457398    -0.33390
C1067       C  0.73218296  0.76001289  0.22902124     0.35860
C1068       C  0.72920995  0.77630546  0.26120449    -0.06320
C1069       C  0.74514719  0.75765081  0.28835980    -0.33290
C1070       C  0.76339069  0.72378462  0.28394261     0.35760
H1071       H  0.75351534  0.71549757  0.19948738     0.16130
O1072       O  0.71687441  0.77665999  0.20146723    -0.60790
H1073       H  0.74234643  0.76863186  0.31340435     0.16150
O1074       O  0.77906717  0.70729080  0.31144722    -0.60890
H1075       H  0.76032902  0.68967154  0.31968288     0.43140
H1076       H  0.69506407  0.76145060  0.19589410     0.43100
C1077       C  0.28735114  0.08645826  0.01002619    -0.05960
C1078       C  0.25984433  0.07959142  0.03387646    -0.33390
C1079       C  0.22247245  0.07793714  0.02431464     0.35860
C1080       C  0.21217733  0.08250863  0.99045303    -0.06320
C1081       C  0.23992934  0.08610617  0.96639114    -0.33290
C1082       C  0.27714269  0.08794659  0.97586679     0.35760
H1083       H  0.26689842  0.07890871  0.06021045     0.16130
O1084       O  0.19598425  0.07587204  0.04866014    -0.60790
H1085       H  0.23255107  0.09059753  0.94041655     0.16150
O1086       O  0.30311357  0.09439068  0.95167692    -0.60890
H1087       H  0.31492956  0.07012430  0.94756734     0.43140
H1088       H  0.18771934  0.04985413  0.04853335     0.43100
C1089       C  0.35332974  0.24149051  0.16350560    -0.05960
C1090       C  0.33290857  0.24337558  0.13382227    -0.33390
C1091       C  0.33443609  0.21494802  0.11026412     0.35860
C1092       C  0.35827488  0.18430302  0.11510364    -0.06320
C1093       C  0.37786798  0.18178989  0.14544193    -0.33290
C1094       C  0.37535132  0.20998014  0.16958423     0.35760
H1095       H  0.31544958  0.26710502  0.12888466     0.16130
O1096       O  0.31319509  0.21814304  0.08197805    -0.60790
H1097       H  0.39654799  0.15888738  0.14979120     0.16150
O1098       O  0.39611995  0.20739775  0.19816536    -0.60890
H1099       H  0.41960692  0.21995958  0.19278221     0.43140
H1100       H  0.29072671  0.20356895  0.08669799     0.43100
C1101       C  0.50451093  0.10907075  0.09513925    -0.05960
C1102       C  0.50379516  0.08409493  0.12215901    -0.33390
C1103       C  0.53148044  0.08403850  0.14667983     0.35860
C1104       C  0.56108312  0.10889952  0.14462451    -0.06320
C1105       C  0.56283315  0.13297962  0.11715130    -0.33290
C1106       C  0.53478782  0.13344738  0.09271243     0.35760
H1107       H  0.48128567  0.06477992  0.12471548     0.16130
O1108       O  0.52865687  0.06034440  0.17334076    -0.60790
H1109       H  0.58483979  0.15301810  0.11567515     0.16150
O1110       O  0.53666706  0.15886453  0.06737164    -0.60890
H1111       H  0.52441543  0.18127873  0.07626632     0.43140
H1112       H  0.54412903  0.03874883  0.16735632     0.43100
C1113       C  0.70848608  0.90157519  0.00198655    -0.05960
C1114       C  0.71923591  0.88353891  0.03165116    -0.33390
C1115       C  0.75589775  0.88366354  0.04270081     0.35860
C1116       C  0.78315079  0.90248107  0.02447568    -0.06320
C1117       C  0.77220803  0.92286776  0.99600717    -0.33290
C1118       C  0.73507223  0.92266881  0.98482439     0.35760
H1119       H  0.69937006  0.86732724  0.04547891     0.16130
O1120       O  0.76528264  0.86365196  0.07066395    -0.60790
H1121       H  0.79285974  0.93670214  0.98107657     0.16150
O1122       O  0.72600553  0.94009431  0.95547532    -0.60890
H1123       H  0.71696801  0.96481369  0.96221872     0.43140
H1124       H  0.76802101  0.83783228  0.06289452     0.43100
C1125       C  0.62934966  0.74784857  0.85124781    -0.05960
C1126       C  0.59519670  0.75801267  0.86473643    -0.33390
C1127       C  0.59275804  0.78559604  0.88903417     0.35860
C1128       C  0.62459675  0.80452458  0.89940579    -0.06320
C1129       C  0.65864453  0.79556094  0.88495691    -0.33290
C1130       C  0.66120673  0.76707532  0.86123476     0.35760
H1131       H  0.57048403  0.74360134  0.85730301     0.16130
O1132       O  0.55907803  0.79378999  0.90278706    -0.60790
H1133       H  0.68341786  0.80949163  0.89311820     0.16150
O1134       O  0.69477938  0.75865883  0.84752978    -0.60890
H1135       H  0.70682291  0.74193147  0.86392212     0.43140
H1136       H  0.55582661  0.77574829  0.92122410     0.43100
C1137       C  0.60547182  0.86328772  0.09769221    -0.05960
C1138       C  0.63182143  0.83916491  0.11123770    -0.33390
C1139       C  0.63545545  0.83538901  0.14575229     0.35860
C1140       C  0.61341244  0.85678978  0.16718789    -0.06320
C1141       C  0.58894279  0.88289102  0.15364958    -0.33290
C1142       C  0.58463461  0.88605249  0.11908151     0.35760
H1143       H  0.64834192  0.82174877  0.09510454     0.16130
O1144       O  0.66046279  0.81053510  0.15829565    -0.60790
H1145       H  0.57183595  0.89959932  0.16989021     0.16150
O1146       O  0.55926368  0.91064639  0.10656113    -0.60890
H1147       H  0.57363641  0.93287739  0.10053205     0.43140
H1148       H  0.64833543  0.78617669  0.15632633     0.43100
C1149       C  0.49821839  0.89063394  0.91112885    -0.05960
C1150       C  0.50769838  0.89112738  0.87716086    -0.33390
C1151       C  0.48111197  0.88733679  0.85213345     0.35860
C1152       C  0.44349416  0.88234327  0.86040228    -0.06320
C1153       C  0.43365080  0.88232076  0.89438998    -0.33290
C1154       C  0.46056613  0.88670727  0.91964319     0.35760
H1155       H  0.53621566  0.89406163  0.86966664     0.16130
O1156       O  0.49283338  0.88665901  0.81953436    -0.60790
H1157       H  0.40509301  0.87868319  0.90146037     0.16150
O1158       O  0.44973355  0.88686314  0.95247242    -0.60890
H1159       H  0.44275957  0.86105970  0.95751107     0.43140
H1160       H  0.49443210  0.91290572  0.81268064     0.43100
C1161       C  0.52808595  0.97613977  0.00051224    -0.05960
C1162       C  0.51454673  0.98062468  0.03334525    -0.33390
C1163       C  0.47931895  0.99489119  0.03949980     0.35860
C1164       C  0.45683226  0.00633760  0.01278178    -0.06320
C1165       C  0.46921939  0.99970276  0.97990423    -0.33290
C1166       C  0.50455484  0.98530605  0.97364708     0.35760
H1167       H  0.53141735  0.97271976  0.05460143     0.16130
O1168       O  0.46913772  0.00213078  0.07185471    -0.60790
H1169       H  0.45294289  0.00954709  0.95891507     0.16150
O1170       O  0.51545093  0.97995175  0.94120485    -0.60890
H1171       H  0.52821545  0.00300462  0.93474356     0.43140
H1172       H  0.45307769  0.98128522  0.07838380     0.43100
C1173       C  0.13821850  0.30520486  0.39927506    -0.05960
C1174       C  0.15773697  0.27228304  0.40481497    -0.33390
C1175       C  0.15921377  0.24465466  0.38057471     0.35860
C1176       C  0.14068455  0.24935215  0.34969315    -0.06320
C1177       C  0.12214244  0.28299996  0.34369130    -0.33290
C1178       C  0.12087488  0.31079100  0.36815216     0.35760
H1179       H  0.17090086  0.26727113  0.42877218     0.16130
O1180       O  0.17724548  0.21237767  0.38826651    -0.60790
H1181       H  0.10765311  0.28747064  0.32035437     0.16150
O1182       O  0.10006047  0.34181792  0.36240829    -0.60890
H1183       H  0.11735248  0.35993686  0.35259310     0.43140
H1184       H  0.20386957  0.21828837  0.38720250     0.43100
C1185       C  0.20964079  0.41059705  0.49319010    -0.05960
C1186       C  0.23725000  0.40056929  0.47048176    -0.33390
C1187       C  0.27451468  0.39907382  0.48008095     0.35860
C1188       C  0.28559566  0.40847906  0.51286291    -0.06320
C1189       C  0.25830266  0.42126887  0.53505298    -0.33290
C1190       C  0.22059959  0.42201456  0.52552214     0.35760
H1191       H  0.22957745  0.39057258  0.44591970     0.16130
O1192       O  0.29979322  0.38588529  0.45767225    -0.60790
H1193       H  0.26575096  0.42775845  0.56060328     0.16150
O1194       O  0.19445680  0.43040692  0.54903257    -0.60890
H1195       H  0.18813502  0.45667034  0.54499976     0.43140
H1196       H  0.29680251  0.35871804  0.45828920     0.43100
C1197       C  0.99502091  0.38385818  0.41152782    -0.05960
C1198       C  0.99935210  0.40021291  0.37999102    -0.33390
C1199       C  0.97041894  0.40094450  0.35659381     0.35860
C1200       C  0.93603824  0.38417162  0.36387972    -0.06320
C1201       C  0.93164982  0.36796308  0.39562526    -0.33290
C1202       C  0.96054248  0.36789518  0.41930390     0.35760
H1203       H  0.02533344  0.41293057  0.37345482     0.16130
O1204       O  0.97677306  0.41720732  0.32615894    -0.60790
H1205       H  0.90599246  0.35449649  0.40194423     0.16150
O1206       O  0.95497179  0.35135895  0.44975260    -0.60890
H1207       H  0.95826553  0.32459491  0.44569316     0.43140
H1208       H  0.96917750  0.44331567  0.32896454     0.43100
C1209       C  0.70984596  0.58185951  0.50103646    -0.05960
C1210       C  0.73609380  0.58017532  0.47538349    -0.33390
C1211       C  0.77396127  0.58181096  0.48279253     0.35860
C1212       C  0.78617900  0.58396592  0.51631294    -0.06320
C1213       C  0.76012426  0.58094954  0.54199677    -0.33290
C1214       C  0.72221384  0.58047082  0.53460099     0.35760
H1215       H  0.72730354  0.58139099  0.44948842     0.16130
O1216       O  0.79886454  0.58324929  0.45704019    -0.60790
H1217       H  0.76888347  0.58260496  0.56787030     0.16150
O1218       O  0.69730501  0.58078072  0.56039685    -0.60890
H1219       H  0.69716574  0.60646337  0.56887836     0.43140
H1220       H  0.79736486  0.60881917  0.44828914     0.43100
C1221       C  0.86156052  0.68992610  0.61275161    -0.05960
C1222       C  0.87146336  0.72629650  0.60502122    -0.33390
C1223       C  0.86900975  0.75433449  0.62872223     0.35860
C1224       C  0.85593394  0.74667532  0.66121899    -0.06320
C1225       C  0.84593774  0.71008940  0.66909455    -0.33290
C1226       C  0.84900045  0.68174395  0.64517835     0.35760
H1227       H  0.88204247  0.73301006  0.58041625     0.16130
O1228       O  0.88101393  0.78885482  0.62006000    -0.60790
H1229       H  0.83569570  0.70342326  0.69380141     0.16150
O1230       O  0.83835679  0.64664221  0.65332897    -0.60890
H1231       H  0.86066310  0.63476684  0.66293689     0.43140
H1232       H  0.85993032  0.80060618  0.60827980     0.43100
C1233       C  0.88552526  0.62801729  0.34499409    -0.05960
C1234       C  0.86067566  0.64691028  0.36549752    -0.33390
C1235       C  0.86349156  0.64467442  0.40020164     0.35860
C1236       C  0.89187619  0.62337494  0.41508352    -0.06320
C1237       C  0.91533996  0.60257497  0.39444873    -0.33290
C1238       C  0.91221679  0.60466273  0.35958207     0.35760
H1239       H  0.83950772  0.66436438  0.35454256     0.16130
O1240       O  0.83857095  0.66389406  0.41924740    -0.60790
H1241       H  0.93729219  0.58603493  0.40524336     0.16150
O1242       O  0.93730254  0.58623704  0.34012218    -0.60890
H1243       H  0.92641890  0.56155885  0.33636647     0.43140
H1244       H  0.84724464  0.68979298  0.41900314     0.43100
C1245       C  0.00160594  0.61722162  0.59879146    -0.05960
C1246       C  0.03853162  0.62418848  0.58982067    -0.33390
C1247       C  0.06685608  0.62429999  0.61414208     0.35860
C1248       C  0.05836069  0.61807300  0.64809319    -0.06320
C1249       C  0.02149915  0.61097379  0.65669434    -0.33290
C1250       C  0.99353977  0.61048586  0.63274830     0.35760
H1251       H  0.04552972  0.62919130  0.56388660     0.16130
O1252       O  0.10226147  0.63197704  0.60460724    -0.60790
H1253       H  0.01390480  0.60621969  0.68254611     0.16150
O1254       O  0.95801705  0.60485687  0.64325703    -0.60890
H1255       H  0.95566546  0.57776040  0.64583841     0.43140
H1256       H  0.11343783  0.60770965  0.59926087     0.43100
C1257       C  0.02520336  0.47042522  0.50543571    -0.05960
C1258       C  0.01923508  0.48277494  0.53822278    -0.33390
C1259       C  0.98694020  0.50185517  0.54669717     0.35860
C1260       C  0.95906485  0.50768576  0.52261335    -0.06320
C1261       C  0.96424347  0.49366583  0.49029464    -0.33290
C1262       C  0.99704328  0.47566332  0.48149828     0.35760
H1263       H  0.03992174  0.47785098  0.55732842     0.16130
O1264       O  0.98403429  0.51735007  0.57788023    -0.60790
H1265       H  0.94407792  0.49959065  0.47095286     0.16150
O1266       O  0.00069297  0.46233585  0.44964427    -0.60890
H1267       H  0.01272218  0.48237408  0.43684211     0.43140
H1268       H  0.00121075  0.53855418  0.57775669     0.43100
C1269       C  0.34109251  0.95762623  0.76433953    -0.05960
C1270       C  0.34355685  0.98370035  0.79004631    -0.33390
C1271       C  0.34376283  0.02161787  0.78278293     0.35860
C1272       C  0.34078794  0.03423784  0.74932294    -0.06320
C1273       C  0.33441486  0.00819402  0.72405431    -0.33290
C1274       C  0.33494400  0.97018282  0.73131329     0.35760
H1275       H  0.34870643  0.97466533  0.81549295     0.16130
O1276       O  0.35007783  0.04597712  0.80833819    -0.60790
H1277       H  0.33236561  0.01708007  0.69822578     0.16150
O1278       O  0.33221749  0.94545590  0.70554925    -0.60890
H1279       H  0.30618627  0.93725616  0.70573579     0.43140
H1280       H  0.32554774  0.05639558  0.81390380     0.43100
C1281       C  0.43930666  0.10468719  0.64568022    -0.05960
C1282       C  0.47381444  0.08950317  0.65473139    -0.33390
C1283       C  0.50288740  0.08683224  0.63184995     0.35860
C1284       C  0.49801496  0.09842344  0.59850622    -0.06320
C1285       C  0.46316320  0.11223712  0.58884389    -0.33290
C1286       C  0.43420776  0.11595413  0.61215949     0.35760
H1287       H  0.47899779  0.08063930  0.68020736     0.16130
O1288       O  0.53589889  0.07228518  0.64239330    -0.60790
H1289       H  0.45869902  0.12143656  0.56334982     0.16150
O1290       O  0.40129626  0.13089317  0.60188832    -0.60890
H1291       H  0.40431429  0.15793542  0.60421143     0.43140
H1292       H  0.54907957  0.09306407  0.65309930     0.43100
C1293       C  0.38950043  0.14124647  0.84395678    -0.05960
C1294       C  0.36361045  0.15835599  0.86486841    -0.33390
C1295       C  0.36526773  0.15358326  0.89950523     0.35860
C1296       C  0.39317663  0.13129859  0.91378833    -0.06320
C1297       C  0.41728317  0.11202476  0.89274508    -0.33290
C1298       C  0.41556478  0.11666159  0.85815395     0.35760
H1299       H  0.34257857  0.17638039  0.85451746     0.16130
O1300       O  0.33953690  0.17094997  0.91911482    -0.60790
H1301       H  0.43865647  0.09442649  0.90313026     0.16150
O1302       O  0.44055024  0.09804439  0.83872765    -0.60890
H1303       H  0.42808338  0.07479149  0.83241222     0.43140
H1304       H  0.34791142  0.19687423  0.92082410     0.43100
C1305       C  0.36277368  0.30375428  0.60941343    -0.05960
C1306       C  0.37055320  0.31341466  0.64265625    -0.33390
C1307       C  0.36968611  0.28672374  0.66825880     0.35860
C1308       C  0.36109342  0.24961485  0.66075203    -0.06320
C1309       C  0.35173172  0.24059345  0.62774587    -0.33290
C1310       C  0.35263646  0.26701016  0.60231858     0.35760
H1311       H  0.37858194  0.34137257  0.64863361     0.16130
O1312       O  0.37754003  0.29728722  0.70036774    -0.60790
H1313       H  0.34442895  0.21256877  0.62125247     0.16150
O1314       O  0.34331429  0.25654196  0.57044550    -0.60890
H1315       H  0.36515496  0.24309846  0.56178431     0.43140
H1316       H  0.35325369  0.30209349  0.71085741     0.43100
C1317       C  0.15879616  0.45747200  0.75792941    -0.05960
C1318       C  0.18247608  0.48296238  0.77351142    -0.33390
C1319       C  0.18417433  0.52014522  0.76226161     0.35860
C1320       C  0.16221288  0.53216289  0.73501591    -0.06320
C1321       C  0.14120366  0.50591805  0.71805183    -0.33290
C1322       C  0.13942535  0.46930113  0.72899920     0.35760
H1323       H  0.19743216  0.47490837  0.79584400     0.16130
O1324       O  0.20441933  0.54513808  0.78010010    -0.60790
H1325       H  0.12377558  0.51448776  0.69735810     0.16150
O1326       O  0.11606905  0.44589539  0.71254977    -0.60890
H1327       H  0.12876362  0.43966753  0.69136728     0.43140
H1328       H  0.22810865  0.54715891  0.76792878     0.43100
C1329       C  0.05649544  0.38049841  0.86315333    -0.05960
C1330       C  0.02319220  0.36083911  0.86088597    -0.33390
C1331       C  0.99507513  0.36525384  0.88423776     0.35860
C1332       C  0.99954268  0.38941678  0.91140812    -0.06320
C1333       C  0.03348986  0.40792705  0.91497527    -0.33290
C1334       C  0.06178978  0.40381318  0.89091228     0.35760
H1335       H  0.01853110  0.34180975  0.84045959     0.16130
O1336       O  0.96370917  0.34455325  0.88083712    -0.60790
H1337       H  0.03774228  0.42625079  0.93596569     0.16150
O1338       O  0.09389360  0.42319016  0.89444541    -0.60890
H1339       H  0.08944947  0.44693123  0.88272255     0.43140
H1340       H  0.94837606  0.35786792  0.86412352     0.43100
C1341       C  0.10965828  0.34596486  0.66708107    -0.05960
C1342       C  0.07999070  0.32850344  0.65152672    -0.33390
C1343       C  0.07510881  0.33125968  0.61705744     0.35860
C1344       C  0.10090832  0.35072669  0.59761071    -0.06320
C1345       C  0.13098241  0.36783018  0.61325954    -0.33290
C1346       C  0.13523347  0.36584148  0.64798891     0.35760
H1347       H  0.06030293  0.31302908  0.66626231     0.16130
O1348       O  0.04587951  0.31358188  0.60248167    -0.60790
H1349       H  0.15094943  0.38296238  0.59857959     0.16150
O1350       O  0.16456623  0.38292127  0.66296563    -0.60890
H1351       H  0.18374914  0.36351961  0.66529515     0.43140
H1352       H  0.02473359  0.33080381  0.60475240     0.43100
C1353       C  0.14086833  0.24935299  0.85557012    -0.05960
C1354       C  0.16822598  0.24221891  0.87960468    -0.33390
C1355       C  0.16507206  0.21220225  0.90172529     0.35860
C1356       C  0.13376279  0.18933821  0.90075094    -0.06320
C1357       C  0.10597382  0.19699687  0.87728657    -0.33290
C1358       C  0.10933827  0.22674669  0.85489960     0.35760
H1359       H  0.19216836  0.25985023  0.88117275     0.16130
O1360       O  0.19224779  0.20607106  0.92499386    -0.60790
H1361       H  0.08090417  0.18086491  0.87729047     0.16150
O1362       O  0.08090831  0.23443979  0.83335027    -0.60890
H1363       H  0.06623963  0.25402119  0.84446524     0.43140
H1364       H  0.20806671  0.18650098  0.91524432     0.43100
C1365       C  0.26219336  0.20675868  0.74684974    -0.05960
C1366       C  0.25482070  0.21732730  0.78005126    -0.33390
C1367       C  0.23941789  0.25204798  0.78773758     0.35860
C1368       C  0.23065086  0.27716379  0.76198446    -0.06320
C1369       C  0.23703478  0.26601720  0.72868582    -0.33290
C1370       C  0.25235329  0.23146149  0.72109534     0.35760
H1371       H  0.26420140  0.19983839  0.80041650     0.16130
O1372       O  0.23346873  0.26132671  0.82050019    -0.60790
H1373       H  0.22973710  0.28427649  0.70819214     0.16150
O1374       O  0.26178501  0.22399869  0.68859051    -0.60890
H1375       H  0.24158843  0.20838909  0.67988745     0.43140
H1376       H  0.21874529  0.24089186  0.82996388     0.43100
C1377       C  0.14273158  0.75044086  0.66508939    -0.05960
C1378       C  0.16382405  0.78275829  0.66848549    -0.33390
C1379       C  0.15991142  0.81204851  0.64550625     0.35860
C1380       C  0.13376165  0.80960879  0.61964302    -0.06320
C1381       C  0.11153664  0.77824560  0.61743442    -0.33290
C1382       C  0.11591891  0.74880480  0.63965176     0.35760
H1383       H  0.18412716  0.78480950  0.68822485     0.16130
O1384       O  0.18218524  0.84234460  0.64806021    -0.60790
H1385       H  0.09116911  0.77612771  0.59773383     0.16150
O1386       O  0.09312148  0.71888031  0.63684149    -0.60890
H1387       H  0.10242992  0.70496451  0.61727302     0.43140
H1388       H  0.20418628  0.83643898  0.63436953     0.43100
C1389       C  0.28482409  0.90257641  0.49211912    -0.05960
C1390       C  0.27605299  0.90131027  0.52636766    -0.33390
C1391       C  0.23917746  0.90235226  0.53723042     0.35860
C1392       C  0.21030514  0.90375015  0.51365699    -0.06320
C1393       C  0.21928970  0.90716076  0.47952046    -0.33290
C1394       C  0.25615112  0.90695504  0.46875226     0.35760
H1395       H  0.29779867  0.89718573  0.54463917     0.16130
O1396       O  0.23165994  0.89741023  0.57053140    -0.60790
H1397       H  0.19751326  0.90745173  0.46093125     0.16150
O1398       O  0.26362788  0.90720465  0.43515453    -0.60890
H1399       H  0.26920274  0.93327533  0.42971328     0.43140
H1400       H  0.22880246  0.92263949  0.57967920     0.43100
C1401       C  0.03605381  0.75884080  0.52190174    -0.05960
C1402       C  0.02935889  0.74271634  0.49085217    -0.33390
C1403       C  0.99639598  0.72498031  0.48475847     0.35860
C1404       C  0.97045016  0.72094507  0.51066979    -0.06320
C1405       C  0.97759995  0.73587988  0.54228339    -0.33290
C1406       C  0.01026892  0.75521079  0.54789567     0.35760
H1407       H  0.04817649  0.74722922  0.47019517     0.16130
O1408       O  0.98972128  0.71153352  0.45326260    -0.60790
H1409       H  0.95827570  0.73204803  0.56261938     0.16150
O1410       O  0.01546528  0.77298986  0.57775354    -0.60890
H1411       H  0.02495663  0.75379047  0.59327047     0.43140
H1412       H  0.97406904  0.73046157  0.44219184     0.43100
C1413       C  0.99434615  0.88399665  0.60061774    -0.05960
C1414       C  0.00204260  0.89831272  0.63247501    -0.33390
C1415       C  0.97580058  0.89736323  0.65811887     0.35860
C1416       C  0.94035293  0.88276528  0.65229745    -0.06320
C1417       C  0.93171350  0.87037308  0.61997687    -0.33290
C1418       C  0.95845850  0.87035471  0.59440725     0.35760
H1419       H  0.02905299  0.90935634  0.63803549     0.16130
O1420       O  0.98512320  0.91097781  0.68897612    -0.60790
H1421       H  0.90472187  0.85907492  0.61491347     0.16150
O1422       O  0.94908966  0.85699488  0.56350089    -0.60890
H1423       H  0.95281021  0.82993181  0.56506598     0.43140
H1424       H  0.00033994  0.89142897  0.69966347     0.43100
C1425       C  0.86316685  0.18722336  0.40232429    -0.05960
C1426       C  0.85259384  0.22347419  0.41050673    -0.33390
C1427       C  0.84933069  0.25091635  0.38601614     0.35860
C1428       C  0.85716358  0.24276339  0.35232228    -0.06320
C1429       C  0.86634959  0.20612349  0.34386756    -0.33290
C1430       C  0.86925165  0.17847446  0.36849989     0.35760
H1431       H  0.84765165  0.23094412  0.43634310     0.16130
O1432       O  0.84054915  0.28610926  0.39573975    -0.60790
H1433       H  0.87180325  0.19891191  0.31808829     0.16150
O1434       O  0.88041872  0.14374981  0.35945899    -0.60890
H1435       H  0.85738477  0.13033949  0.35419014     0.43140
H1436       H  0.81323180  0.28694112  0.39614431     0.43100
C1437       C  0.78835654  0.08238368  0.49829670    -0.05960
C1438       C  0.77848392  0.09157751  0.53126642    -0.33390
C1439       C  0.74160512  0.09110592  0.54183644     0.35860
C1440       C  0.71332824  0.08129095  0.51946818    -0.06320
C1441       C  0.72324382  0.06985940  0.48701142    -0.33290
C1442       C  0.76046233  0.07011685  0.47644223     0.35760
H1443       H  0.79934896  0.10155173  0.54837767     0.16130
O1444       O  0.73312499  0.10378060  0.57319348    -0.60790
H1445       H  0.70185828  0.06344817  0.46902795     0.16150
O1446       O  0.76862305  0.06222918  0.44377851    -0.60890
H1447       H  0.77569098  0.03579210  0.44376919     0.43140
H1448       H  0.73102636  0.08135013  0.58727691     0.43100
C1449       C  0.97920402  0.20881193  0.50734669    -0.05960
C1450       C  0.00859727  0.20991889  0.53009342    -0.33390
C1451       C  0.03602067  0.23632252  0.52644298     0.35860
C1452       C  0.03410332  0.26087294  0.49935534    -0.06320
C1453       C  0.00609396  0.25765583  0.47532431    -0.33290
C1454       C  0.97831855  0.23210920  0.47947462     0.35760
H1455       H  0.01003514  0.19047484  0.55069958     0.16130
O1456       O  0.06362734  0.23877695  0.54981528    -0.60790
H1457       H  0.00495834  0.27618747  0.45402842     0.16150
O1458       O  0.95146761  0.22883705  0.45544782    -0.60890
H1459       H  0.93145593  0.24579392  0.46252366     0.43140
H1460       H  0.05208884  0.25040694  0.56962763     0.43100
C1461       C  0.00193651  0.10215805  0.41453534    -0.05960
C1462       C  0.99433004  0.11766201  0.38314263    -0.33390
C1463       C  0.02208507  0.12349046  0.35962355     0.35860
C1464       C  0.05899956  0.11312756  0.36609106    -0.06320
C1465       C  0.06735400  0.09849237  0.39786187    -0.33290
C1466       C  0.03916233  0.09292870  0.42198642     0.35760
H1467       H  0.96654486  0.12624604  0.37675587     0.16130
O1468       O  0.01283296  0.14112588  0.33053764    -0.60790
H1469       H  0.09546317  0.09069181  0.40378232     0.16150
O1470       O  0.04837349  0.07858160  0.45264528    -0.60890
H1471       H  0.05247944  0.05190791  0.44872945     0.43140
H1472       H  0.01878500  0.16733977  0.33489204     0.43100
C1473       C  0.96835062  0.01063684  0.49801321    -0.05960
C1474       C  0.98350210  0.00759437  0.53046368    -0.33390
C1475       C  0.01877998  0.99320955  0.53590223     0.35860
C1476       C  0.03943337  0.97958446  0.50897487    -0.06320
C1477       C  0.02529136  0.98409655  0.47634397    -0.33290
C1478       C  0.99018499  0.99942905  0.47072257     0.35760
H1479       H  0.96797124  0.01683385  0.55201750     0.16130
O1480       O  0.03068648  0.98794063  0.56815888    -0.60790
H1481       H  0.04018332  0.97253788  0.45533522     0.16150
O1482       O  0.97781612  0.00353847  0.43850328    -0.60890
H1483       H  0.96410744  0.98059023  0.43358206     0.43140
H1484       H  0.04767376  0.00869421  0.57262375     0.43100
C1485       C  0.34430871  0.53352602  0.25987338    -0.05960
C1486       C  0.36601150  0.52228162  0.23257164    -0.33390
C1487       C  0.36551002  0.48598536  0.22073255     0.35860
C1488       C  0.34257097  0.45934887  0.23561219    -0.06320
C1489       C  0.31848715  0.47095036  0.26126304    -0.33290
C1490       C  0.31918663  0.50780389  0.27335933     0.35760
H1491       H  0.38504524  0.54146694  0.22111889     0.16130
O1492       O  0.38888872  0.47630007  0.19521840    -0.60790
H1493       H  0.30106742  0.45090201  0.27354476     0.16150
O1494       O  0.29694791  0.51756987  0.29957256    -0.60890
H1495       H  0.31164377  0.51217980  0.31995436     0.43140
H1496       H  0.41357083  0.47371611  0.20570684     0.43100
C1497       C  0.49507049  0.61079581  0.41346822    -0.05960
C1498       C  0.50353159  0.59888418  0.38101586    -0.33390
C1499       C  0.47717472  0.59998260  0.35552159     0.35860
C1500       C  0.44103467  0.61250142  0.36208207    -0.06320
C1501       C  0.43175390  0.62267544  0.39485054    -0.33290
C1502       C  0.45853545  0.62221847  0.42043537     0.35760
H1503       H  0.53112084  0.58952652  0.37497481     0.16130
O1504       O  0.48702768  0.58851666  0.32407973    -0.60790
H1505       H  0.40419703  0.63253756  0.40032588     0.16150
O1506       O  0.44854141  0.63236329  0.45218259    -0.60890
H1507       H  0.44610753  0.65959226  0.45145897     0.43140
H1508       H  0.50105610  0.60930929  0.31427137     0.43100
C1509       C  0.46267355  0.72900082  0.25402764    -0.05960
C1510       C  0.49484336  0.71917481  0.23705125    -0.33390
C1511       C  0.52435784  0.74331308  0.23608255     0.33940
C1512       C  0.52186533  0.77747740  0.25257514    -0.06320
C1513       C  0.48930849  0.78815793  0.26828282    -0.33290
C1514       C  0.45964257  0.76407143  0.26924124     0.35760
H1515       H  0.49721163  0.69269057  0.22473292     0.16130
O1516       O  0.55599951  0.73285614  0.21985107    -0.60790
H1517       H  0.48762704  0.81421562  0.28142993     0.16150
O1518       O  0.42890214  0.77403355  0.28708166    -0.60890
H1519       H  0.41408488  0.78959003  0.27162422     0.43140
H1520       H  0.55497875  0.74556431  0.19787291     0.43100
C1521       C  0.35571598  0.74562198  0.34702818    -0.05960
C1522       C  0.33402248  0.77799607  0.34578007    -0.33390
C1523       C  0.33970354  0.80690652  0.36889259     0.35860
C1524       C  0.36773954  0.80378750  0.39321905    -0.06320
C1525       C  0.39066006  0.77240348  0.39266559    -0.33290
C1526       C  0.38480967  0.74364673  0.37023385     0.35760
H1527       H  0.31192271  0.78034428  0.32765230     0.16130
O1528       O  0.31638147  0.83673071  0.36877035    -0.60790
H1529       H  0.41308729  0.76973916  0.41037970     0.16150
O1530       O  0.40784674  0.71354221  0.37133363    -0.60890
H1531       H  0.42650595  0.71799322  0.35369812     0.43140
H1532       H  0.32814902  0.85496728  0.35372664     0.43100
C1533       C  0.14897792  0.03032155  0.26954867    -0.05960
C1534       C  0.11606094  0.01049124  0.27016728    -0.33390
C1535       C  0.11452181  0.97388091  0.26057517     0.35860
C1536       C  0.14672020  0.95476350  0.25065487    -0.06320
C1537       C  0.18036774  0.97418749  0.25014651    -0.33290
C1538       C  0.18160496  0.01198400  0.25960338     0.35760
H1539       H  0.09050139  0.02400804  0.27721946     0.16130
O1540       O  0.08052546  0.95741889  0.25945904    -0.60790
H1541       H  0.20545343  0.96015964  0.24276547     0.16150
O1542       O  0.21414338  0.03086845  0.25762060    -0.60890
H1543       H  0.22499332  0.02927145  0.28035856     0.43140
H1544       H  0.07409975  0.95205643  0.28308138     0.43100
C1545       C  0.99923215  0.89242807  0.10323940    -0.05960
C1546       C  0.03370881  0.87790297  0.09361065    -0.33390
C1547       C  0.06245065  0.87286798  0.11702166     0.35860
C1548       C  0.05759343  0.88358561  0.15066267    -0.06320
C1549       C  0.02360196  0.89975855  0.15968530    -0.33290
C1550       C  0.99465959  0.90373023  0.13662558     0.35760
H1551       H  0.03799138  0.86909757  0.06805295     0.16130
O1552       O  0.09493391  0.85718985  0.10670576    -0.60790
H1553       H  0.01873592  0.90839285  0.18521694     0.16150
O1554       O  0.96212429  0.91931822  0.14697175    -0.60890
H1555       H  0.94867574  0.89921984  0.15847576     0.43140
H1556       H  0.09088747  0.83019832  0.10808567     0.43100
C1557       C  0.97070479  0.71514321  0.25410143    -0.05960
C1558       C  0.98940371  0.72098720  0.22406166    -0.33390
C1559       C  0.01119827  0.75207614  0.22027097     0.35860
C1560       C  0.01396637  0.77726280  0.24671485    -0.06320
C1561       C  0.99487769  0.77159306  0.27655470    -0.33290
C1562       C  0.97318254  0.74057294  0.28035886     0.35760
H1563       H  0.98598807  0.70220232  0.20326122     0.16130
O1564       O  0.03162192  0.75640956  0.19170007    -0.60790
H1565       H  0.99842152  0.79023681  0.29746554     0.16150
O1566       O  0.95330916  0.73591659  0.30922254    -0.60890
H1567       H  0.96788653  0.71825620  0.32290641     0.43140
H1568       H  0.01776513  0.77458763  0.17796297     0.43100
C1569       C  0.10773952  0.83904881  0.34874497    -0.05960
C1570       C  0.12430142  0.81313334  0.37008587    -0.33390
C1571       C  0.12126157  0.81652075  0.40475684     0.35860
C1572       C  0.10115027  0.84622834  0.41868931    -0.06320
C1573       C  0.08614645  0.87307768  0.39729537    -0.33290
C1574       C  0.08930534  0.86974016  0.36266072     0.35760
H1575       H  0.13874456  0.78949136  0.35990548     0.16130
O1576       O  0.13679135  0.78970675  0.42458448    -0.60790
H1577       H  0.07143519  0.89661600  0.40735710     0.16150
O1578       O  0.07473428  0.89699587  0.34269517    -0.60890
H1579       H  0.04801959  0.89155533  0.34120493     0.43140
H1580       H  0.16240610  0.79801894  0.42867250     0.43100
C1581       C  0.13305230  0.73839169  0.16338842    -0.05960
C1582       C  0.10488078  0.74029974  0.13961913    -0.33390
C1583       C  0.10205749  0.71374376  0.11443845     0.35860
C1584       C  0.12772085  0.68430642  0.11257345    -0.06320
C1585       C  0.15519442  0.68152193  0.13726934    -0.33290
C1586       C  0.15808193  0.70853927  0.16249582     0.35760
H1587       H  0.08503624  0.76270609  0.14042300     0.16130
O1588       O  0.07344512  0.71633335  0.09204404    -0.60790
H1589       H  0.17510645  0.65921056  0.13637352     0.16150
O1590       O  0.18532625  0.70557690  0.18615963    -0.60890
H1591       H  0.20822616  0.71313695  0.17458384     0.43140
H1592       H  0.08005476  0.73692367  0.07687585     0.43100
C1593       C  0.23500865  0.78335955  0.25271083    -0.05960
C1594       C  0.23927529  0.76860838  0.28518099    -0.33390
C1595       C  0.25376294  0.73305897  0.29035858     0.35860
C1596       C  0.26534565  0.71172940  0.26287665    -0.06320
C1597       C  0.26348210  0.72787795  0.23070525    -0.33290
C1598       C  0.24942909  0.76344620  0.22570009     0.35760
H1599       H  0.22740763  0.78306641  0.30630047     0.16130
O1600       O  0.25662157  0.71972148  0.32237729    -0.60790
H1601       H  0.27335085  0.71289231  0.20906486     0.16150
O1602       O  0.24527924  0.77642501  0.19365300    -0.60890
H1603       H  0.26684794  0.79257401  0.18984912     0.43140
H1604       H  0.23326720  0.70635422  0.32642011     0.43100
C1605       C  0.28852960  0.58007823  0.98943441    -0.05960
C1606       C  0.25975056  0.58843269  0.96724636    -0.33390
C1607       C  0.22294968  0.58990076  0.97819260     0.35860
C1608       C  0.21389355  0.58260785  0.01193455    -0.06320
C1609       C  0.24243508  0.57177540  0.03374553    -0.33290
C1610       C  0.27947764  0.57066378  0.02275737     0.35760
H1611       H  0.26606693  0.59663606  0.94181804     0.16130
O1612       O  0.19605263  0.60021857  0.95590583    -0.60790
H1613       H  0.23641629  0.56691043  0.05990635     0.16150
O1614       O  0.30691802  0.56394213  0.04562313    -0.60890
H1615       H  0.31386979  0.53773675  0.04232006     0.43140
H1616       H  0.19970283  0.62701358  0.95221805     0.43100
C1617       C  0.37114479  0.68656425  0.89811022    -0.05960
C1618       C  0.36587365  0.72404840  0.90578891    -0.33390
C1619       C  0.36469204  0.75109056  0.88092879     0.35860
C1620       C  0.36888367  0.74143119  0.84700201    -0.06320
C1621       C  0.37418087  0.70394980  0.83896352    -0.33290
C1622       C  0.37502901  0.67657608  0.86418670     0.35760
H1623       H  0.36306253  0.73285310  0.93153837     0.16130
O1624       O  0.36112172  0.78727428  0.89040970    -0.60790
H1625       H  0.37736859  0.69580918  0.81308197     0.16150
O1626       O  0.38113475  0.64054765  0.85545860    -0.60890
H1627       H  0.35630063  0.63018039  0.85134788     0.43140
H1628       H  0.33440025  0.79099593  0.89442871     0.43100
C1629       C  0.47286572  0.71392374  0.01473676    -0.05960
C1630       C  0.45724691  0.74860188  0.00926321    -0.33390
C1631       C  0.47940502  0.77960472  0.00850926     0.35860
C1632       C  0.51799423  0.77585112  0.01259539    -0.06320
C1633       C  0.53310042  0.74147731  0.02079933    -0.33290
C1634       C  0.51076010  0.71053372  0.02212187     0.35760
H1635       H  0.42803720  0.75159244  0.00415024     0.16130
O1636       O  0.46303769  0.81311950  0.00250556    -0.60790
H1637       H  0.56237221  0.73829703  0.02545079     0.16150
O1638       O  0.52607047  0.67719307  0.03093400    -0.60890
H1639       H  0.54142460  0.66966929  0.01162031     0.43140
H1640       H  0.45729452  0.82324131  0.02492544     0.43100
C1641       C  0.38684632  0.62326771  0.09580416    -0.05960
C1642       C  0.35933999  0.64681907  0.10819278    -0.33390
C1643       C  0.35597614  0.65276584  0.14252388     0.35860
C1644       C  0.37985358  0.63435869  0.16485737    -0.06320
C1645       C  0.40536650  0.60863456  0.15253655    -0.33290
C1646       C  0.40908945  0.60312048  0.11828128     0.35760
H1647       H  0.34172520  0.66220889  0.09121086     0.16130
O1648       O  0.32936282  0.67656748  0.15395664    -0.60790
H1649       H  0.42367588  0.59390731  0.16940182     0.16150
O1650       O  0.43545318  0.57895888  0.10704171    -0.60890
H1651       H  0.42237976  0.55525235  0.10399472     0.43140
H1652       H  0.33997117  0.70155764  0.15129328     0.43100
C1653       C  0.56280021  0.60044256  0.86710633    -0.05960
C1654       C  0.56627061  0.61792928  0.89834210    -0.33390
C1655       C  0.53777094  0.61623540  0.92214659     0.35860
C1656       C  0.50487335  0.59727550  0.91483044    -0.06320
C1657       C  0.50187701  0.57883686  0.88426781    -0.33290
C1658       C  0.53043711  0.57973793  0.86082672     0.35760
H1659       H  0.59053067  0.63410440  0.90391067     0.16130
O1660       O  0.54171311  0.63463755  0.95182792    -0.60790
H1661       H  0.47702125  0.56369481  0.87838201     0.16150
O1662       O  0.52541184  0.56151126  0.83116984    -0.60890
H1663       H  0.53624984  0.53666785  0.83479855     0.43140
H1664       H  0.53045862  0.65925873  0.94795171     0.43100
C1665       C  0.71240250  0.40421771  0.01485163    -0.05960
C1666       C  0.72282779  0.41130623  0.98153673    -0.33390
C1667       C  0.76017372  0.41190938  0.97213159     0.35860
C1668       C  0.78773825  0.40434129  0.99597895    -0.06320
C1669       C  0.77742862  0.39930717  0.02957052    -0.33290
C1670       C  0.74019270  0.39970813  0.03915569     0.35760
H1671       H  0.70184044  0.41409598  0.96236820     0.16130
O1672       O  0.76914131  0.41591448  0.93903552    -0.60790
H1673       H  0.79826511  0.39268491  0.04812601     0.16150
O1674       O  0.73120562  0.39107316  0.07153089    -0.60890
H1675       H  0.72883575  0.41512581  0.08306752     0.43140
H1676       H  0.77484837  0.44245378  0.93624545     0.43100
C1677       C  0.63501964  0.30738198  0.11664055    -0.05960
C1678       C  0.66990711  0.29359573  0.12548034    -0.33390
C1679       C  0.67362743  0.26348849  0.14746140     0.35860
C1680       C  0.64224543  0.24622148  0.16091920    -0.06320
C1681       C  0.60727136  0.25992731  0.15205691    -0.33290
C1682       C  0.60350519  0.29020190  0.13013414     0.35760
H1683       H  0.69440735  0.30578318  0.11473753     0.16130
O1684       O  0.70817367  0.25080778  0.15509078    -0.60790
H1685       H  0.58277345  0.24677258  0.16182411     0.16150
O1686       O  0.56891952  0.30095943  0.12006595    -0.60890
H1687       H  0.56137252  0.32037773  0.13608748     0.43140
H1688       H  0.71329623  0.23114671  0.13853658     0.43100
C1689       C  0.53542810  0.26405716  0.02923228    -0.05960
C1690       C  0.54142131  0.23277285  0.01015985    -0.33390
C1691       C  0.51273452  0.20858991  0.00432082     0.35860
C1692       C  0.47733783  0.21570064  0.01816756    -0.06320
C1693       C  0.47268624  0.24506020  0.04027102    -0.33290
C1694       C  0.50155772  0.26958977  0.04557672     0.35760
H1695       H  0.56734044  0.22887818  0.99714403     0.16130
O1696       O  0.51932172  0.17931627  0.98345751    -0.60790
H1697       H  0.44633956  0.25001958  0.05219474     0.16150
O1698       O  0.49608206  0.29986301  0.06543377    -0.60890
H1699       H  0.47614004  0.31418738  0.05439438     0.43140
H1700       H  0.53102652  0.16016643  0.99774569     0.43100
C1701       C  0.44162961  0.37985359  0.14795422    -0.05960
C1702       C  0.43101982  0.37855045  0.11415433    -0.33390
C1703       C  0.45741525  0.38243944  0.08856454     0.35860
C1704       C  0.49502807  0.38737346  0.09667229    -0.06320
C1705       C  0.50496944  0.39108306  0.13029956    -0.33290
C1706       C  0.47897355  0.38732338  0.15568635     0.35760
H1707       H  0.40255642  0.37331327  0.10757126     0.16130
O1708       O  0.44618703  0.38094567  0.05583699    -0.60790
H1709       H  0.53349106  0.39557114  0.13721833     0.16150
O1710       O  0.49058414  0.39107571  0.18819362    -0.60890
H1711       H  0.50314193  0.36749309  0.19378916     0.43140
H1712       H  0.44401214  0.40703586  0.04857150     0.43100
C1713       C  0.47214805  0.51260852  0.99852305    -0.05960
C1714       C  0.49537883  0.50537020  0.97121809    -0.33390
C1715       C  0.53088629  0.49067352  0.97614542     0.35860
C1716       C  0.54389951  0.48279024  0.00871809    -0.06320
C1717       C  0.52187962  0.49280889  0.03595680    -0.33290
C1718       C  0.48612000  0.50639308  0.03116394     0.35760
H1719       H  0.48619778  0.51143626  0.94599250     0.16130
O1720       O  0.55131325  0.48044734  0.94885983    -0.60790
H1721       H  0.53051488  0.48557697  0.06112826     0.16150
O1722       O  0.46479242  0.51309201  0.05879626    -0.60890
H1723       H  0.45073245  0.49005636  0.06249271     0.43140
H1724       H  0.56610450  0.50248808  0.94311268     0.43100
C1725       C  0.66237014  0.45700846  0.74672439    -0.05960
C1726       C  0.66533895  0.46843424  0.78030809    -0.33390
C1727       C  0.66612361  0.50607013  0.78889439     0.35860
C1728       C  0.66286717  0.53323974  0.76380864    -0.06320
C1729       C  0.66305038  0.52177294  0.73011608    -0.33290
C1730       C  0.66322042  0.48415539  0.72150400     0.35760
H1731       H  0.66438786  0.44807166  0.80017043     0.16130
O1732       O  0.66532148  0.51575065  0.82200390    -0.60790
H1733       H  0.66023369  0.54209954  0.71034858     0.16150
O1734       O  0.65937464  0.47447186  0.68856440    -0.60890
H1735       H  0.68487115  0.47071926  0.68034110     0.43140
H1736       H  0.69145659  0.51974633  0.82823709     0.43100
C1737       C  0.55767658  0.38542894  0.64834155    -0.05960
C1738       C  0.52167628  0.39484816  0.65859896    -0.33390
C1739       C  0.49243649  0.39777030  0.63577095     0.35860
C1740       C  0.49852223  0.39226080  0.60134613    -0.06320
C1741       C  0.53469067  0.38381050  0.59075986    -0.33290
C1742       C  0.56391128  0.37981946  0.61391020     0.35760
H1743       H  0.51563576  0.39895254  0.68485450     0.16130
O1744       O  0.45804565  0.40665419  0.64752970    -0.60790
H1745       H  0.54021538  0.37931018  0.56446635     0.16150
O1746       O  0.59838883  0.37081479  0.60250316    -0.60890
H1747       H  0.59862159  0.34351867  0.60106887     0.43140
H1748       H  0.44729826  0.38297328  0.65513075     0.43100
C1749       C  0.52469535  0.27487765  0.73689821    -0.05960
C1750       C  0.53659063  0.23780293  0.73885838    -0.33390
C1751       C  0.51196481  0.20909374  0.73537015     0.35860
C1752       C  0.47478198  0.21747112  0.73165964    -0.06320
C1753       C  0.46318585  0.25425483  0.72679900    -0.33290
C1754       C  0.48816342  0.28308640  0.72885911     0.35760
H1755       H  0.56492967  0.23079749  0.74459323     0.16130
O1756       O  0.52378543  0.17346159  0.73996836    -0.60790
H1757       H  0.43434278  0.26093509  0.72409647     0.16150
O1758       O  0.47585485  0.31884787  0.72703329    -0.60890
H1759       H  0.47765684  0.32561509  0.70304807     0.43140
H1760       H  0.52895677  0.16410809  0.71716177     0.43100
C1761       C  0.61441350  0.34398533  0.84650627    -0.05960
C1762       C  0.62366472  0.31378201  0.86686402    -0.33390
C1763       C  0.61877917  0.31539646  0.90152352     0.35860
C1764       C  0.60448319  0.34769906  0.91636426    -0.06320
C1765       C  0.59687204  0.37846039  0.89606297    -0.33290
C1766       C  0.60169336  0.37679141  0.86143453     0.35760
H1767       H  0.63318640  0.28823990  0.85576389     0.16130
O1768       O  0.62602481  0.28449857  0.92030499    -0.60790
H1769       H  0.58680172  0.40387884  0.90700171     0.16150
O1770       O  0.59441595  0.40755242  0.84243359    -0.60890
H1771       H  0.56723729  0.40822877  0.83981586     0.43140
H1772       H  0.65275258  0.28561045  0.92539925     0.43100
C1773       C  0.63225598  0.18215272  0.61432705    -0.05960
C1774       C  0.60091391  0.18955628  0.63368751    -0.33390
C1775       C  0.60070413  0.21826874  0.65721827     0.35860
C1776       C  0.63241996  0.23998969  0.66231441    -0.06320
C1777       C  0.66405132  0.23205120  0.64321282    -0.33290
C1778       C  0.66403843  0.20358233  0.61933983     0.35760
H1779       H  0.57574098  0.17435133  0.62917746     0.16130
O1780       O  0.56857141  0.22615462  0.67360820    -0.60790
H1781       H  0.68879883  0.24824972  0.64653814     0.16150
O1782       O  0.69471115  0.19796506  0.60000301    -0.60890
H1783       H  0.70866841  0.17799318  0.61141528     0.43140
H1784       H  0.55651208  0.24584813  0.66018789     0.43100
C1785       C  0.84027189  0.03373094  0.76425523    -0.05960
C1786       C  0.81701927  0.00824520  0.78037930    -0.33390
C1787       C  0.81556728  0.97098329  0.76963818     0.35860
C1788       C  0.83740107  0.95903324  0.74246679    -0.06320
C1789       C  0.85778207  0.98525998  0.72488229    -0.33290
C1790       C  0.85926209  0.02190046  0.73530285     0.35760
H1791       H  0.80220116  0.01642166  0.80265981     0.16130
O1792       O  0.79562109  0.94595603  0.78776112    -0.60790
H1793       H  0.87495510  0.97669169  0.70410656     0.16150
O1794       O  0.88169137  0.04543644  0.71805111    -0.60890
H1795       H  0.86673571  0.05399014  0.69872581     0.43140
H1796       H  0.77198803  0.94346175  0.77550037     0.43100
C1797       C  0.93860237  0.10587713  0.86812574    -0.05960
C1798       C  0.93277859  0.11932440  0.90065810    -0.33390
C1799       C  0.96090481  0.11688628  0.92511020     0.35860
C1800       C  0.99538902  0.10080965  0.91713089    -0.06320
C1801       C  0.00022145  0.08584994  0.88513788    -0.33290
C1802       C  0.97233008  0.08798066  0.86101698     0.35760
H1803       H  0.90735691  0.13365853  0.90653098     0.16130
O1804       O  0.95507489  0.13208452  0.95602772    -0.60790
H1805       H  0.02615494  0.07287834  0.87852543     0.16150
O1806       O  0.97897499  0.07369554  0.82985343    -0.60890
H1807       H  0.96680090  0.04926981  0.82981206     0.43140
H1808       H  0.96455187  0.15763496  0.95435533     0.43100
C1809       C  0.96802124  0.22212881  0.75998297    -0.05960
C1810       C  0.96239644  0.25973600  0.75292971    -0.33390
C1811       C  0.99174625  0.28407097  0.75333242     0.35860
C1812       C  0.02716977  0.27053438  0.76040298    -0.06320
C1813       C  0.03275818  0.23262384  0.76614502    -0.33290
C1814       C  0.00349245  0.20850656  0.76627153     0.35760
H1815       H  0.93508379  0.27046214  0.74757686     0.16130
O1816       O  0.98541999  0.32072753  0.74688762    -0.60790
H1817       H  0.05993534  0.22135396  0.77102775     0.16150
O1818       O  0.00968671  0.17219308  0.77434229    -0.60890
H1819       H  0.01698188  0.16021804  0.75307739     0.43140
H1820       H  0.98018503  0.33191331  0.76899407     0.43100
C1821       C  0.88625141  0.13471916  0.66961213    -0.05960
C1822       C  0.86039603  0.15140377  0.64831571    -0.33390
C1823       C  0.86254551  0.14662441  0.61372997     0.35860
C1824       C  0.89154591  0.12550955  0.59992672    -0.06320
C1825       C  0.91669562  0.10789640  0.62148271    -0.33290
C1826       C  0.91409125  0.11216093  0.65608622     0.35760
H1827       H  0.83869679  0.16862596  0.65850832     0.16130
O1828       O  0.83746124  0.16454896  0.59370394    -0.60790
H1829       H  0.93920256  0.09158659  0.61150691     0.16150
O1830       O  0.94063324  0.09666468  0.67626313    -0.60890
H1831       H  0.93570858  0.06979850  0.67605357     0.43140
H1832       H  0.81545771  0.14843639  0.59340335     0.43100
C1833       C  0.87033798  0.30139865  0.90018705    -0.05960
C1834       C  0.84444894  0.30680002  0.87446426    -0.33390
C1835       C  0.83794367  0.27895780  0.85051362     0.35860
C1836       C  0.85732047  0.24510232  0.85217098    -0.06320
C1837       C  0.88434326  0.24065608  0.87692547    -0.33290
C1838       C  0.89118609  0.26831050  0.90041431     0.35760
H1839       H  0.82824332  0.33194203  0.87364309     0.16130
O1840       O  0.81161075  0.28458136  0.82648110    -0.60790
H1841       H  0.90061242  0.21553028  0.87798326     0.16150
O1842       O  0.91915751  0.26303869  0.92313395    -0.60890
H1843       H  0.90916488  0.24582616  0.94013302     0.43140
H1844       H  0.78788882  0.28320809  0.83865087     0.43100
C1845       C  0.76696427  0.21202732  0.76135003    -0.05960
C1846       C  0.75511975  0.23436311  0.78781189    -0.33390
C1847       C  0.73946152  0.26929371  0.78168472     0.35860
C1848       C  0.73546500  0.28288805  0.74866517    -0.06320
C1849       C  0.74881819  0.26131023  0.72237279    -0.33290
C1850       C  0.76389226  0.22621566  0.72830467     0.35760
H1851       H  0.75826914  0.22493632  0.81339121     0.16130
O1852       O  0.72504839  0.28892707  0.80794786    -0.60790
H1853       H  0.74388189  0.26990355  0.69674962     0.16150
O1854       O  0.77432261  0.20531613  0.70132388    -0.60890
H1855       H  0.79757387  0.21646807  0.69320250     0.43140
H1856       H  0.70202302  0.27601158  0.81422394     0.43100
loop_ 
_geom_bond_atom_site_label_1 
_geom_bond_atom_site_label_2 
_geom_bond_distance 
_geom_bond_site_symmetry_2 
_ccdc_geom_bond_type 
O1           C16   1.254       .  A
O1           Al9   1.872       .  S
C2           O12   1.269       .  A
C2            O3   1.273       .  A
C2         C1836   1.491       .  S
O3           Al5   1.969       .  S
O4            C6   1.249       .  A
O4           Al5   1.825       .  S
Al5          O13   1.854       .  S
Al5          O15   1.908       .  S
Al5          O14   1.762       .  S
C6           O19   1.262       .  A
C6         C1809   1.446       .  S
O7           C17   1.255       .  A
O7           Al9   1.867       .  S
O8           C21   1.279       .  A
O8          Al18   1.964       .  S
Al9          O22   1.915       .  S
Al9          O19   1.900       .  S
Al9          O14   1.760       .  S
O10          C17   1.275       .  A
O10         Al18   1.982       .  S
O11          C20   1.275       .  A
O11         Al18   2.012       .  S
O12         Al18   1.905       .  S
O13          C20   1.239       .  A
O14         Al18   1.785       .  S
O15          C16   1.260       .  A
C16        C1821   1.467       .  S
C17        C1797   1.490       .  S
C20        C1845   1.495       .  S
C21          O22   1.268       .  A
C21        C1785   1.501       .  S
O23          C38   1.266       .  A
O23         Al31   1.899       .  S
C24          O34   1.265       .  A
C24          O25   1.256       .  A
C24        C1737   1.501       .  S
O25         Al27   1.892       .  S
O26          C28   1.262       .  A
O26         Al27   1.928       .  S
Al27         O35   1.881       .  S
Al27         O37   1.923       .  S
Al27         O36   1.782       .  S
C28          O41   1.245       .  A
C28        C1749   1.453       .  S
O29          C39   1.270       .  A
O29         Al31   1.923       .  S
O30          C43   1.273       .  A
O30         Al40   1.965       .  S
Al31         O44   1.806       .  S
Al31         O41   1.854       .  S
Al31         O36   1.776       .  S
O32          C39   1.273       .  A
O32         Al40   1.950       .  S
O33          C42   1.279       .  A
O33         Al40   1.980       .  S
O34         Al40   1.944       .  S
O35          C42   1.261       .  A
O36         Al40   1.776       .  S
O37          C38   1.268       .  A
C38        C1761   1.473       .  S
C39        C1776   1.496       .  S
C42        C1725   1.494       .  S
C43          O44   1.241       .  A
C43        C1848   1.465       .  S
O45          C60   1.258       .  A
O45         Al53   1.892   1_556  S
C46          O56   1.260       .  A
C46          O47   1.255       .  A
C46        C1677   1.487       .  S
O47         Al49   1.912       .  S
O48          C50   1.260       .  A
O48         Al49   1.893       .  S
Al49         O57   1.881       .  S
Al49         O59   1.918   1_554  S
Al49         O58   1.790       .  S
C50          O63   1.258       .  A
C50        C1689   1.439       .  S
O51          C61   1.261       .  A
O51         Al53   1.899       .  S
O52          C65   1.271       .  A
O52         Al62   1.947       .  S
Al53         O66   1.819       .  S
Al53         O63   1.872       .  S
Al53         O58   1.776       .  S
O54          C61   1.265       .  A
O54         Al62   1.914       .  S
O55          C64   1.279       .  A
O55         Al62   1.977       .  S
O56         Al62   1.932       .  S
O57          C64   1.262       .  A
O58         Al62   1.777       .  S
O59          C60   1.260       .  A
C60        C1764   1.478       .  S
C61        C1704   1.485       .  S
C64        C1665   1.485       .  S
C65          O66   1.246       .  A
C65        C1716   1.463       .  S
O67          C82   1.258       .  A
O67         Al75   1.883   1_554  S
C68          O78   1.267       .  A
C68          O69   1.270       .  A
C68        C1656   1.484       .  S
O69         Al71   1.950   1_556  S
O70          C72   1.249       .  A
O70         Al71   1.830       .  S
Al71         O79   1.856       .  S
Al71         O81   1.900       .  S
Al71         O80   1.759   1_554  S
C72          O85   1.264       .  A
C72        C1629   1.453       .  S
O73          C83   1.258       .  A
O73         Al75   1.864       .  S
O74          C87   1.275       .  A
O74         Al84   1.955       .  S
Al75         O88   1.917       .  S
Al75         O85   1.919   1_556  S
Al75         O80   1.768       .  S
O76          C83   1.275       .  A
O76         Al84   1.974       .  S
O77          C86   1.271       .  A
O77         Al84   1.992       .  S
O78         Al84   1.902       .  S
O79          C86   1.242   1_554  A
O80         Al84   1.786       .  S
O81          C82   1.261       .  A
C82        C1641   1.466       .  S
C83        C1617   1.494       .  S
C86        C1713   1.490       .  S
C87          O88   1.265       .  A
C87        C1605   1.490       .  S
O89         C104   1.262       .  A
O89         Al97   1.902       .  S
C90         O100   1.264       .  A
C90          O91   1.257       .  A
C90        C1548   1.501       .  S
O91         Al93   1.903       .  S
O92          C94   1.258       .  A
O92         Al93   1.889       .  S
Al93        O101   1.855       .  S
Al93        O103   1.905       .  S
Al93        O102   1.771       .  S
C94         O107   1.253       .  A
C94        C1560   1.426       .  S
O95         C105   1.264       .  A
O95         Al97   1.898       .  S
O96         C109   1.272       .  A
O96        Al106   1.954       .  S
Al97        O110   1.814       .  S
Al97        O107   1.861       .  S
Al97        O102   1.772       .  S
O98         C105   1.272       .  A
O98        Al106   1.949       .  S
O99         C108   1.280       .  A
O99        Al106   2.004       .  S
O100       Al106   1.938       .  S
O101        C108   1.255       .  A
O102       Al106   1.783       .  S
O103        C104   1.260       .  A
C104       C1569   1.474       .  S
C105       C1581   1.478       .  S
C108       C1536   1.494       .  S
C109        O110   1.244       .  A
C109       C1593   1.463       .  S
O111        C126   1.255       .  A
O111       Al119   1.870       .  S
C112        O122   1.270       .  A
C112        O113   1.272       .  A
C112       C1521   1.487       .  S
O113       Al115   1.963       .  S
O114        C116   1.247       .  A
O114       Al115   1.827       .  S
Al115       O123   1.860       .  S
Al115       O125   1.901       .  S
Al115       O124   1.761       .  S
C116        O129   1.265       .  A
C116       C1509   1.456       .  S
O117        C127   1.255       .  A
O117       Al119   1.863       .  S
O118        C131   1.280       .  A
O118       Al128   1.966       .  S
Al119       O132   1.920       .  S
Al119       O129   1.921       .  S
Al119       O124   1.761       .  S
O120        C127   1.273       .  A
O120       Al128   1.968       .  S
O121        C130   1.270       .  A
O121       Al128   1.998       .  S
O122       Al128   1.904       .  S
O123        C130   1.241       .  A
O124       Al128   1.788       .  S
O125        C126   1.260       .  A
C126       C1644   1.466       .  S
C127       C1500   1.483       .  S
C130       C1596   1.496       .  S
C131        O132   1.271       .  A
C131       C1485   1.505       .  S
O133        C148   1.254       .  A
O133       Al141   1.879       .  S
C134        O144   1.272       .  A
C134        O135   1.274       .  A
C134       C1461   1.505   1_655  S
O135       Al137   1.974       .  S
O136        C138   1.246       .  A
O136       Al137   1.815       .  S
Al137       O145   1.858       .  S
Al137       O147   1.899       .  S
Al137       O146   1.768       .  S
C138        O151   1.264       .  A
C138       C1449   1.432       .  S
O139        C149   1.253       .  A
O139       Al141   1.864       .  S
O140        C153   1.279       .  A
O140       Al150   1.954       .  S
Al141       O154   1.917       .  S
Al141       O151   1.911       .  S
Al141       O146   1.767       .  S
O142        C149   1.269       .  A
O142       Al150   1.959       .  S
O143        C152   1.270       .  A
O143       Al150   1.994       .  S
O144       Al150   1.909       .  S
O145        C152   1.241       .  A
O146       Al150   1.793       .  S
O147        C148   1.258       .  A
C148       C1824   1.476       .  S
C149       C1425   1.487       .  S
C152       C1473   1.493       .  S
C153        O154   1.269       .  A
C153       C1437   1.495       .  S
O155        C170   1.263       .  A
O155       Al163   1.898       .  S
C156        O166   1.258       .  A
C156        O157   1.253       .  A
C156       C1380   1.472       .  S
O157       Al159   1.893       .  S
O158        C160   1.259       .  A
O158       Al159   1.908       .  S
Al159       O167   1.873       .  S
Al159       O169   1.909       .  S
Al159       O168   1.787       .  S
C160        O173   1.250       .  A
C160       C1401   1.437       .  S
O161        C171   1.266       .  A
O161       Al163   1.910       .  S
O162        C175   1.269       .  A
O162       Al172   1.948       .  S
Al163       O176   1.813       .  S
Al163       O173   1.849       .  S
Al163       O168   1.776       .  S
O164        C171   1.272       .  A
O164       Al172   1.937       .  S
O165        C174   1.277       .  A
O165       Al172   1.976       .  S
O166       Al172   1.918       .  S
O167        C174   1.259       .  A
O168       Al172   1.784       .  S
O169        C170   1.262       .  A
C170       C1572   1.478       .  S
C171       C1413   1.497   1_455  S
C174       C1392   1.487       .  S
C175        O176   1.242       .  A
C175       C1476   1.462       .  S
O177        C192   1.257       .  A
O177       Al185   1.889       .  S
C178        O188   1.266       .  A
C178        O179   1.269       .  A
C178       C1353   1.486       .  S
O179       Al181   1.946       .  S
O180        C182   1.249       .  A
O180       Al181   1.816       .  S
Al181       O189   1.851       .  S
Al181       O191   1.914       .  S
Al181       O190   1.754       .  S
C182        O195   1.265       .  A
C182       C1812   1.452       .  S
O183        C193   1.257       .  A
O183       Al185   1.848       .  S
O184        C197   1.279       .  A
O184       Al194   1.976       .  S
Al185       O198   1.906       .  S
Al185       O195   1.926       .  S
Al185       O190   1.762       .  S
O186        C193   1.280       .  A
O186       Al194   1.993       .  S
O187        C196   1.280       .  A
O187       Al194   2.020       .  S
O188       Al194   1.921       .  S
O189        C196   1.243       .  A
O190       Al194   1.781       .  S
O191        C192   1.260       .  A
C192       C1341   1.455       .  S
C193       C1329   1.495       .  S
C196       C1368   1.495       .  S
C197        O198   1.264       .  A
C197       C1317   1.506       .  S
O199        C214   1.263       .  A
O199       Al207   1.899       .  S
C200        O210   1.262       .  A
C200        O201   1.251       .  A
C200       C1281   1.501       .  S
O201       Al203   1.883       .  S
O202        C204   1.261       .  A
O202       Al203   1.908       .  S
Al203       O211   1.873       .  S
Al203       O213   1.909       .  S
Al203       O212   1.786       .  S
C204        O217   1.251       .  A
C204       C1752   1.445       .  S
O205        C215   1.266       .  A
O205       Al207   1.905       .  S
O206        C219   1.272       .  A
O206       Al216   1.965       .  S
Al207       O220   1.797       .  S
Al207       O217   1.859       .  S
Al207       O212   1.780       .  S
O208        C215   1.270       .  A
O208       Al216   1.920       .  S
O209        C218   1.281       .  A
O209       Al216   1.981       .  S
O210       Al216   1.945       .  S
O211        C218   1.263       .  A
O212       Al216   1.777       .  S
O213        C214   1.262       .  A
C214       C1293   1.477       .  S
C215       C1308   1.488       .  S
C218       C1272   1.492       .  S
C219        O220   1.238       .  A
C219       C1365   1.468       .  S
O221        C236   1.269       .  A
O221       Al229   1.906       .  S
C222        O232   1.258       .  A
C222        O223   1.252       .  A
C222       C1221   1.480       .  S
O223       Al225   1.876       .  S
O224        C226   1.258       .  A
O224       Al225   1.924       .  S
Al225       O233   1.878       .  S
Al225       O235   1.915       .  S
Al225       O234   1.780       .  S
C226        O239   1.245       .  A
C226       C1404   1.452       .  S
O227        C237   1.274       .  A
O227       Al229   1.925       .  S
O228        C241   1.265       .  A
O228       Al238   1.945       .  S
Al229       O242   1.813       .  S
Al229       O239   1.859       .  S
Al229       O234   1.785       .  S
O230        C237   1.274       .  A
O230       Al238   1.925       .  S
O231        C240   1.274       .  A
O231       Al238   1.958       .  S
O232       Al238   1.920       .  S
O233        C240   1.261       .  A
O234       Al238   1.782       .  S
O235        C236   1.268       .  A
C236       C1236   1.479       .  S
C237       C1245   1.493   1_655  S
C240       C1212   1.487       .  S
C241        O242   1.239       .  A
C241       C1260   1.459       .  S
O243        C258   1.258       .  A
O243       Al251   1.891       .  S
C244        O254   1.266       .  A
C244        O245   1.264       .  A
C244       C1197   1.498   1_455  S
O245       Al247   1.932       .  S
O246        C248   1.250       .  A
O246       Al247   1.824       .  S
Al247       O255   1.856       .  S
Al247       O257   1.914       .  S
Al247       O256   1.764       .  S
C248        O261   1.265       .  A
C248       C1452   1.443       .  S
O249        C259   1.257       .  A
O249       Al251   1.858       .  S
O250        C263   1.274       .  A
O250       Al260   1.965       .  S
Al251       O264   1.901       .  S
Al251       O261   1.931       .  S
Al251       O256   1.777       .  S
O252        C259   1.273       .  A
O252       Al260   1.957       .  S
O253        C262   1.276       .  A
O253       Al260   1.979       .  S
O254       Al260   1.927       .  S
O255        C262   1.250       .  A
O256       Al260   1.778       .  S
O257        C258   1.262       .  A
C258       C1344   1.467       .  S
C259       C1173   1.480       .  S
C262       C1257   1.476       .  S
C263        O264   1.260       .  A
C263       C1185   1.495       .  S
O265        C280   1.258       .  A
O265       Al273   1.878   1_554  S
C266        O276   1.268       .  A
C266        O267   1.272       .  A
C266       C1149   1.496       .  S
O267       Al269   1.960   1_556  S
O268        C270   1.248   1_556  A
O268       Al269   1.830   1_556  S
Al269       O277   1.854       .  S
Al269       O279   1.904       .  S
Al269       O278   1.755   1_554  S
C270        O283   1.265       .  A
C270       C1632   1.460       .  S
O271        C281   1.257       .  A
O271       Al273   1.870       .  S
O272        C285   1.278       .  A
O272       Al282   1.958       .  S
Al273       O286   1.918       .  S
Al273       O283   1.921   1_556  S
Al273       O278   1.762       .  S
O274        C281   1.274       .  A
O274       Al282   1.968       .  S
O275        C284   1.272       .  A
O275       Al282   2.002       .  S
O276       Al282   1.898       .  S
O277        C284   1.240   1_554  A
O278       Al282   1.785       .  S
O279        C280   1.262       .  A
C280       C1137   1.464       .  S
C281       C1128   1.474       .  S
C284       C1161   1.492   1_556  S
C285        O286   1.268       .  A
C285       C1113   1.497   1_556  S
O287        C302   1.267       .  A
O287       Al295   1.897   1_556  S
C288        O298   1.262       .  A
C288        O289   1.250       .  A
C288       C1092   1.497       .  S
O289       Al291   1.869       .  S
O290        C292   1.263       .  A
O290       Al291   1.934       .  S
Al291       O299   1.875       .  S
Al291       O301   1.919   1_554  S
Al291       O300   1.782       .  S
C292        O305   1.241   1_554  A
C292       C1692   1.463       .  S
O293        C303   1.273       .  A
O293       Al295   1.922       .  S
O294        C307   1.267       .  A
O294       Al304   1.958       .  S
Al295       O308   1.798       .  S
Al295       O305   1.857   1_554  S
Al295       O300   1.781       .  S
O296        C303   1.277       .  A
O296       Al304   1.943       .  S
O297        C306   1.278       .  A
O297       Al304   1.972       .  S
O298       Al304   1.941       .  S
O299        C306   1.262       .  A
O300       Al304   1.780       .  S
O301        C302   1.268       .  A
C302       C1296   1.474       .  S
C303       C1101   1.500       .  S
C306       C1077   1.491       .  S
C307        O308   1.236       .  A
C307       C1164   1.464       .  S
O309        C324   1.260       .  A
O309       Al317   1.905       .  S
C310        O320   1.275       .  A
C310        O311   1.253       .  A
C310       C1044   1.501       .  S
O311       Al313   1.850       .  S
O312        C314   1.263       .  A
O312       Al313   1.921       .  S
Al313       O321   1.915       .  S
Al313       O323   1.884       .  S
Al313       O322   1.774       .  S
C314        O327   1.247       .  A
C314       C1557   1.428       .  S
O315        C325   1.270       .  A
O315       Al317   1.957       .  S
O316        C329   1.276       .  A
O316       Al326   1.999       .  S
Al317       O330   1.855       .  S
Al317       O327   1.811       .  S
Al317       O322   1.764       .  S
O318        C325   1.266       .  A
O318       Al326   1.903       .  S
O319        C328   1.270       .  A
O319       Al326   1.930       .  S
O320       Al326   1.991       .  S
O321        C328   1.266       .  A
O322       Al326   1.787       .  S
O323        C324   1.255       .  A
C324       C1233   1.469       .  S
C325       C1053   1.487       .  S
C328       C1029   1.480       .  S
C329        O330   1.243       .  A
C329       C1065   1.494       .  S
O331        C346   1.257       .  A
O331       Al339   1.881       .  S
C332        O342   1.268       .  A
C332        O333   1.270       .  A
C332       C1017   1.494       .  S
O333       Al335   1.950       .  S
O334        C336   1.251       .  A
O334       Al335   1.833       .  S
Al335       O343   1.853       .  S
Al335       O345   1.907       .  S
Al335       O344   1.763       .  S
C336        O349   1.264       .  A
C336       C1512   1.446       .  S
O337        C347   1.256       .  A
O337       Al339   1.858       .  S
O338        C351   1.274       .  A
O338       Al348   1.958       .  S
Al339       O352   1.918       .  S
Al339       O349   1.923       .  S
Al339       O344   1.773       .  S
O340        C347   1.277       .  A
O340       Al348   1.985       .  S
O341        C350   1.276       .  A
O341       Al348   2.000       .  S
O342       Al348   1.914       .  S
O343        C350   1.243       .  A
O344       Al348   1.783       .  S
O345        C346   1.261       .  A
C346       C1140   1.465       .  S
C347       C1005   1.494       .  S
C350       C1068   1.495       .  S
C351        O352   1.264       .  A
C351        C993   1.494       .  S
O353        C368   1.257       .  A
O353       Al361   1.894   1_556  S
C354        O364   1.266       .  A
C354        O355   1.268       .  A
C354       C1545   1.495       .  S
O355       Al357   1.947       .  S
O356        C358   1.249       .  A
O356       Al357   1.826       .  S
Al357       O365   1.857   1_554  S
Al357       O367   1.915   1_554  S
Al357       O366   1.762       .  S
C358        O371   1.269       .  A
C358        C960   1.462       .  S
O359        C369   1.258       .  A
O359       Al361   1.870       .  S
O360        C373   1.273       .  A
O360       Al370   1.955       .  S
Al361       O374   1.913       .  S
Al361       O371   1.939       .  S
Al361       O366   1.768       .  S
O362        C369   1.276       .  A
O362       Al370   1.973       .  S
O363        C372   1.277       .  A
O363       Al370   1.995       .  S
O364       Al370   1.913       .  S
O365        C372   1.246   1_556  A
O366       Al370   1.777       .  S
O367        C368   1.261       .  A
C368        C969   1.461       .  S
C369       C1056   1.485       .  S
C372        C981   1.490       .  S
C373        O374   1.265       .  A
C373       C1116   1.492       .  S
O375        C390   1.262       .  A
O375       Al383   1.909       .  S
C376        O386   1.274       .  A
C376        O377   1.255       .  A
C376       C1356   1.480       .  S
O377       Al379   1.871       .  S
O378        C380   1.263       .  A
O378       Al379   1.911   1_554  S
Al379       O387   1.911       .  S
Al379       O389   1.879   1_556  S
Al379       O388   1.775       .  S
C380        O393   1.249       .  A
C380        C936   1.445       .  S
O381        C391   1.272       .  A
O381       Al383   1.963   1_556  S
O382        C395   1.272       .  A
O382       Al392   1.992       .  S
Al383       O396   1.857       .  S
Al383       O393   1.823       .  S
Al383       O388   1.763   1_554  S
O384        C391   1.268       .  A
O384       Al392   1.902       .  S
O385        C394   1.273       .  A
O385       Al392   1.943       .  S
O386       Al392   1.973       .  S
O387        C394   1.265       .  A
O388       Al392   1.783       .  S
O389        C390   1.256       .  A
C390        C945   1.468       .  S
C391       C1800   1.492   1_455  S
C394       C1080   1.482       .  S
C395        O396   1.243   1_556  A
C395        C984   1.494   1_556  S
O397        C412   1.267       .  A
O397       Al405   1.900       .  S
C398        O408   1.266       .  A
C398        O399   1.254       .  A
C398       C1464   1.504       .  S
O399       Al401   1.880       .  S
O400        C402   1.255       .  A
O400       Al401   1.894       .  S
Al401       O409   1.854       .  S
Al401       O411   1.911       .  S
Al401       O410   1.773       .  S
C402        O415   1.240       .  A
C402        C912   1.452       .  S
O403        C413   1.274       .  A
O403       Al405   1.915       .  S
O404        C417   1.271       .  A
O404       Al414   1.973       .  S
Al405       O418   1.790       .  S
Al405       O415   1.859       .  S
Al405       O410   1.786       .  S
O406        C413   1.275       .  A
O406       Al414   1.931       .  S
O407        C416   1.275       .  A
O407       Al414   1.972       .  S
O408       Al414   1.960       .  S
O409        C416   1.258       .  A
O410       Al414   1.785       .  S
O411        C412   1.268       .  A
C412        C948   1.475       .  S
C413       C1176   1.493       .  S
C416       C1533   1.486       .  S
C417        O418   1.235       .  A
C417        C924   1.467       .  S
O419        C434   1.255       .  A
O419       Al427   1.870       .  S
C420        O430   1.268       .  A
C420        O421   1.273       .  A
C420       C1089   1.487       .  S
O421       Al423   1.961       .  S
O422        C424   1.247       .  A
O422       Al423   1.818       .  S
Al423       O431   1.856       .  S
Al423       O433   1.900       .  S
Al423       O432   1.756       .  S
C424        O437   1.263       .  A
C424        C885   1.456       .  S
O425        C435   1.254       .  A
O425       Al427   1.856       .  S
O426        C439   1.279       .  A
O426       Al436   1.967       .  S
Al427       O440   1.916       .  S
Al427       O437   1.915       .  S
Al427       O432   1.762       .  S
O428        C435   1.276       .  A
O428       Al436   1.983       .  S
O429        C438   1.273       .  A
O429       Al436   2.013       .  S
O430       Al436   1.904       .  S
O431        C438   1.239       .  A
O432       Al436   1.790       .  S
O433        C434   1.260       .  A
C434        C897   1.453       .  S
C435       C1701   1.490       .  S
C438        C921   1.501       .  S
C439        O440   1.268       .  A
C439       C1488   1.499       .  S
O441        C456   1.259       .  A
O441       Al449   1.884       .  S
C442        O452   1.264       .  A
C442        O443   1.258       .  A
C442       C1020   1.505       .  S
O443       Al445   1.907       .  S
O444        C446   1.258       .  A
O444       Al445   1.894       .  S
Al445       O453   1.872       .  S
Al445       O455   1.915       .  S
Al445       O454   1.784       .  S
C446        O459   1.252       .  A
C446        C852   1.433       .  S
O447        C457   1.264       .  A
O447       Al449   1.903       .  S
O448        C461   1.273       .  A
O448       Al458   1.956       .  S
Al449       O462   1.817       .  S
Al449       O459   1.856       .  S
Al449       O454   1.776       .  S
O450        C457   1.269       .  A
O450       Al458   1.927       .  S
O451        C460   1.277       .  A
O451       Al458   1.975       .  S
O452       Al458   1.937       .  S
O453        C460   1.258       .  A
O454       Al458   1.778       .  S
O455        C456   1.264       .  A
C456        C861   1.473       .  S
C457       C1497   1.489       .  S
C460       C1209   1.488       .  S
C461        O462   1.244       .  A
C461        C873   1.466       .  S
O463        C478   1.256       .  A
O463       Al471   1.878       .  S
C464        O474   1.268       .  A
C464        O465   1.270       .  A
C464       C1740   1.499       .  S
O465       Al467   1.954       .  S
O466        C468   1.250       .  A
O466       Al467   1.824       .  S
Al467       O475   1.855       .  S
Al467       O477   1.905       .  S
Al467       O476   1.760       .  S
C468        O481   1.267       .  A
C468        C837   1.459       .  S
O469        C479   1.255       .  A
O469       Al471   1.856       .  S
O470        C483   1.278       .  A
O470       Al480   1.964       .  S
Al471       O484   1.922       .  S
Al471       O481   1.927       .  S
Al471       O476   1.764       .  S
O472        C479   1.273       .  A
O472       Al480   1.965       .  S
O473        C482   1.275       .  A
O473       Al480   2.004       .  S
O474       Al480   1.914       .  S
O475        C482   1.243       .  A
O476       Al480   1.786       .  S
O477        C478   1.259       .  A
C478        C900   1.473       .  S
C479       C1305   1.485       .  S
C482        C876   1.494       .  S
C483        O484   1.268       .  A
C483       C1188   1.504       .  S
O485        C500   1.259       .  A
O485       Al493   1.896       .  S
C486        O496   1.263       .  A
C486        O487   1.269       .  A
C486       C1224   1.491       .  S
O487       Al489   1.953       .  S
O488        C490   1.252       .  A
O488       Al489   1.833       .  S
Al489       O497   1.855       .  S
Al489       O499   1.913       .  S
Al489       O498   1.764       .  S
C490        O503   1.266       .  A
C490        C813   1.449       .  S
O491        C501   1.258       .  A
O491       Al493   1.871       .  S
O492        C505   1.272       .  A
O492       Al502   1.951       .  S
Al493       O506   1.907       .  S
Al493       O503   1.925       .  S
Al493       O498   1.765       .  S
O494        C501   1.276       .  A
O494       Al502   1.973       .  S
O495        C504   1.275       .  A
O495       Al502   1.993       .  S
O496       Al502   1.893       .  S
O497        C504   1.246       .  A
O498       Al502   1.779       .  S
O499        C500   1.261       .  A
C500        C972   1.462       .  S
C501       C1416   1.491       .  S
C504        C825   1.492       .  S
C505        O506   1.265       .  A
C505       C1788   1.487       .  S
O507        C522   1.261       .  A
O507       Al515   1.891       .  S
C508        O518   1.264       .  A
C508        O509   1.256       .  A
C508       C1653   1.497       .  S
O509       Al511   1.898       .  S
O510        C512   1.259       .  A
O510       Al511   1.911       .  S
Al511       O519   1.878       .  S
Al511       O521   1.915       .  S
Al511       O520   1.780       .  S
C512        O525   1.253       .  A
C512        C801   1.439       .  S
O513        C523   1.263       .  A
O513       Al515   1.895       .  S
O514        C527   1.272       .  A
O514       Al524   1.950       .  S
Al515       O528   1.833       .  S
Al515       O525   1.860       .  S
Al515       O520   1.769       .  S
O516        C523   1.271       .  A
O516       Al524   1.949       .  S
O517        C526   1.280       .  A
O517       Al524   1.987       .  S
O518       Al524   1.934       .  S
O519        C526   1.260       .  A
O520       Al524   1.777       .  S
O521        C522   1.264       .  A
C522        C864   1.474       .  S
C523       C1125   1.479       .  S
C526       C1728   1.495       .  S
C527        O528   1.248       .  A
C527        C828   1.468       .  S
O529        C544   1.259       .  A
O529       Al537   1.899       .  S
C530        O540   1.263       .  A
C530        O531   1.253       .  A
C530       C1200   1.505       .  S
O531       Al533   1.897       .  S
O532        C534   1.260       .  A
O532       Al533   1.895       .  S
Al533       O541   1.866       .  S
Al533       O543   1.909       .  S
Al533       O542   1.787       .  S
C534        O547   1.256       .  A
C534        C909   1.438       .  S
O535        C545   1.263       .  A
O535       Al537   1.895       .  S
O536        C549   1.273       .  A
O536       Al546   1.965       .  S
Al537       O550   1.800       .  S
Al537       O547   1.863       .  S
Al537       O542   1.771       .  S
O538        C545   1.268       .  A
O538       Al546   1.928       .  S
O539        C548   1.281       .  A
O539       Al546   1.986       .  S
O540       Al546   1.946       .  S
O541        C548   1.260       .  A
O542       Al546   1.779       .  S
O543        C544   1.261       .  A
C544        C780   1.468       .  S
C545       C1428   1.491       .  S
C548       C1032   1.491       .  S
C549        O550   1.241       .  A
C549        C792   1.470       .  S
O551        C566   1.257       .  A
O551       Al559   1.893       .  S
C552        O562   1.267       .  A
C552        O553   1.269       .  A
C552       C1680   1.489       .  S
O553       Al555   1.959       .  S
O554        C556   1.250       .  A
O554       Al555   1.822       .  S
Al555       O563   1.853       .  S
Al555       O565   1.907       .  S
Al555       O564   1.758       .  S
C556        O569   1.266       .  A
C556        C888   1.451       .  S
O557        C567   1.258       .  A
O557       Al559   1.874       .  S
O558        C571   1.277       .  A
O558       Al568   1.965       .  S
Al559       O572   1.911       .  S
Al559       O569   1.923       .  S
Al559       O564   1.771       .  S
O560        C567   1.275       .  A
O560       Al568   1.967       .  S
O561        C570   1.277       .  A
O561       Al568   2.007       .  S
O562       Al568   1.925       .  S
O563        C570   1.241       .  A
O564       Al568   1.781       .  S
O565        C566   1.259       .  A
C566        C765   1.456       .  S
C567       C1104   1.483       .  S
C570        C789   1.495       .  S
C571        O572   1.265       .  A
C571        C996   1.497       .  S
O573        C588   1.259       .  A
O573       Al581   1.903       .  S
C574        O584   1.275       .  A
C574        O575   1.255       .  A
C574       C1833   1.493       .  S
O575       Al577   1.860       .  S
O576        C578   1.268       .  A
O576       Al577   1.924   1_554  S
Al577       O585   1.914       .  S
Al577       O587   1.889   1_556  S
Al577       O586   1.764       .  S
C578        O591   1.250   1_554  A
C578        C933   1.456       .  S
O579        C589   1.269       .  A
O579       Al581   1.961   1_556  S
O580        C593   1.278       .  A
O580       Al590   2.003       .  S
Al581       O594   1.857       .  S
Al581       O591   1.826   1_554  S
Al581       O586   1.760   1_554  S
O582        C589   1.265       .  A
O582       Al590   1.897       .  S
O583        C592   1.272       .  A
O583       Al590   1.934       .  S
O584       Al590   1.979       .  S
O585        C592   1.267       .  A
O586       Al590   1.780       .  S
O587        C588   1.258       .  A
C588        C777   1.476       .  S
C589       C1332   1.491       .  S
C592       C1668   1.483       .  S
C593        O594   1.244   1_556  A
C593        C753   1.488   1_556  S
O595        C610   1.255       .  A
O595       Al603   1.864   1_556  S
C596        O606   1.267       .  A
C596        O597   1.273       .  A
C596       C1041   1.498       .  S
O597       Al599   1.968       .  S
O598        C600   1.249       .  A
O598       Al599   1.830       .  S
Al599       O607   1.856   1_554  S
Al599       O609   1.904   1_554  S
Al599       O608   1.765       .  S
C600        O613   1.265       .  A
C600        C957   1.453       .  S
O601        C611   1.254       .  A
O601       Al603   1.862       .  S
O602        C615   1.277       .  A
O602       Al612   1.954       .  S
Al603       O616   1.928       .  S
Al603       O613   1.915       .  S
Al603       O608   1.765       .  S
O604        C611   1.274       .  A
O604       Al612   1.977       .  S
O605        C614   1.273       .  A
O605       Al612   1.999       .  S
O606       Al612   1.895       .  S
O607        C614   1.241   1_556  A
O608       Al612   1.785       .  S
O609        C610   1.260       .  A
C610        C741   1.462       .  S
C611       C1584   1.489       .  S
C614        C756   1.491       .  S
C615        O616   1.269       .  A
C615       C1608   1.498       .  S
O617        C632   1.261       .  A
O617       Al625   1.900       .  S
C618        O628   1.266       .  A
C618        O619   1.267       .  A
C618       C1284   1.495       .  S
O619       Al621   1.947       .  S
O620        C622   1.250       .  A
O620       Al621   1.826       .  S
Al621       O629   1.855       .  S
Al621       O631   1.904       .  S
Al621       O630   1.761       .  S
C622        O635   1.266       .  A
C622        C840   1.453       .  S
O623        C633   1.258       .  A
O623       Al625   1.878       .  S
O624        C637   1.274       .  A
O624       Al634   1.953       .  S
Al625       O638   1.916       .  S
Al625       O635   1.930       .  S
Al625       O630   1.774       .  S
O626        C633   1.275       .  A
O626       Al634   1.969       .  S
O627        C636   1.277       .  A
O627       Al634   1.999       .  S
O628       Al634   1.911       .  S
O629        C636   1.244       .  A
O630       Al634   1.777       .  S
O631        C632   1.261       .  A
C632        C768   1.475       .  S
C633       C1773   1.481       .  S
C636        C732   1.494       .  S
C637        O638   1.264       .  A
C637       C1440   1.491       .  S
O639        C654   1.260       .  A
O639       Al647   1.902       .  S
C640        O650   1.271       .  A
C640        O641   1.251       .  A
C640       C1524   1.492       .  S
O641       Al643   1.855       .  S
O642        C644   1.265       .  A
O642       Al643   1.921       .  S
Al643       O651   1.930       .  S
Al643       O653   1.870       .  S
Al643       O652   1.768       .  S
C644        O657   1.245       .  A
C644        C849   1.446       .  S
O645        C655   1.275       .  A
O645       Al647   1.969       .  S
O646        C659   1.272       .  A
O646       Al656   1.999       .  S
Al647       O660   1.859       .  S
Al647       O657   1.809       .  S
Al647       O652   1.765       .  S
O648        C655   1.269       .  A
O648       Al656   1.895       .  S
O649        C658   1.274       .  A
O649       Al656   1.929       .  S
O650       Al656   1.983       .  S
O651        C658   1.272       .  A
O652       Al656   1.792       .  S
O653        C654   1.252       .  A
C654        C717   1.465       .  S
C655       C1008   1.493       .  S
C658       C1389   1.484       .  S
C659        O660   1.241       .  A
C659        C729   1.498       .  S
O661        C676   1.267       .  A
O661       Al669   1.898       .  S
C662        O672   1.263       .  A
C662        O663   1.251       .  A
C662       C1152   1.496       .  S
O663       Al665   1.872       .  S
O664        C666   1.262       .  A
O664       Al665   1.942       .  S
Al665       O673   1.888       .  S
Al665       O675   1.914       .  S
Al665       O674   1.777       .  S
C666        O679   1.243       .  A
C666        C804   1.462       .  S
O667        C677   1.274       .  A
O667       Al669   1.927       .  S
O668        C681   1.269       .  A
O668       Al678   1.962       .  S
Al669       O682   1.797       .  S
Al669       O679   1.855       .  S
Al669       O674   1.784       .  S
O670        C677   1.273       .  A
O670       Al678   1.925       .  S
O671        C680   1.275       .  A
O671       Al678   1.958       .  S
O672       Al678   1.940       .  S
O673        C680   1.262       .  A
O674       Al678   1.777       .  S
O675        C676   1.268       .  A
C676        C720   1.470       .  S
C677       C1620   1.492       .  S
C680       C1269   1.487       .  S
C681        O682   1.238       .  A
C681        C708   1.461       .  S
O683        C698   1.257       .  A
O683       Al691   1.879       .  S
C684        O694   1.265       .  A
C684        O685   1.269       .  A
C684       C1377   1.482       .  S
O685       Al687   1.955       .  S
O686        C688   1.251       .  A
O686       Al687   1.828       .  S
Al687       O695   1.857       .  S
Al687       O697   1.895       .  S
Al687       O696   1.758       .  S
C688        O701   1.266       .  A
C688        C816   1.460       .  S
O689        C699   1.256       .  A
O689       Al691   1.856       .  S
O690        C703   1.276       .  A
O690       Al700   1.959       .  S
Al691       O704   1.916       .  S
Al691       O701   1.925       .  S
Al691       O696   1.760       .  S
O692        C699   1.276       .  A
O692       Al700   1.979       .  S
O693        C702   1.275       .  A
O693       Al700   2.007       .  S
O694       Al700   1.896       .  S
O695        C702   1.242       .  A
O696       Al700   1.781       .  S
O697        C698   1.259       .  A
C698        C744   1.462       .  S
C699       C1248   1.492       .  S
C702        C705   1.491       .  S
C703        O704   1.268       .  A
C703       C1320   1.494       .  S
C705        C706   1.404       .  A
C705        C710   1.416       .  A
C706        C707   1.407       .  A
C706        H711   1.083       .  S
C707        C708   1.414       .  A
C707        O712   1.373       .  S
C708        C709   1.401       .  A
C709        C710   1.400       .  A
C709        H713   1.085       .  S
C710        O714   1.372       .  S
O712        H716   0.992       .  S
O714        H715   0.992       .  S
C717        C718   1.399       .  A
C717        C722   1.409       .  A
C718        C719   1.394       .  A
C718        H723   1.084       .  S
C719        C720   1.411       .  A
C719        O724   1.373       .  S
C720        C721   1.402       .  A
C721        C722   1.397       .  A
C721        H725   1.084       .  S
C722        O726   1.372       .  S
O724        H728   0.992       .  S
O726        H727   0.992       .  S
C729        C730   1.401       .  A
C729        C734   1.422       .  A
C730        C731   1.404   1_565  A
C730        H735   1.083       .  S
C731        C732   1.421       .  A
C731        O736   1.373       .  S
C732        C733   1.401   1_545  A
C733        C734   1.403       .  A
C733        H737   1.084   1_565  S
C734        O738   1.372       .  S
O736        H740   0.992       .  S
O738        H739   0.991       .  S
C741        C742   1.401       .  A
C741        C746   1.406       .  A
C742        C743   1.391       .  A
C742        H747   1.084       .  S
C743        C744   1.408       .  A
C743        O748   1.371       .  S
C744        C745   1.401       .  A
C745        C746   1.393       .  A
C745        H749   1.084       .  S
C746        O750   1.370       .  S
O748        H752   0.991       .  S
O750        H751   0.992       .  S
C753        C754   1.400   1_554  A
C753        C758   1.419       .  A
C754        C755   1.402   1_655  A
C754        H759   1.084       .  S
C755        C756   1.418   1_556  A
C755        O760   1.372       .  S
C756        C757   1.402       .  A
C757        C758   1.403   1_455  A
C757        H761   1.084       .  S
C758        O762   1.372       .  S
O760        H764   0.991       .  S
O762        H763   0.991       .  S
C765        C766   1.400       .  A
C765        C770   1.400       .  A
C766        C767   1.402       .  A
C766        H771   1.084       .  S
C767        C768   1.412       .  A
C767        O772   1.372       .  S
C768        C769   1.406       .  A
C769        C770   1.391       .  A
C769        H773   1.084       .  S
C770        O774   1.373       .  S
O772        H776   0.992       .  S
O774        H775   0.992       .  S
C777        C778   1.406       .  A
C777        C782   1.412       .  A
C778        C779   1.400       .  A
C778        H783   1.084       .  S
C779        C780   1.406       .  A
C779        O784   1.371       .  S
C780        C781   1.400       .  A
C781        C782   1.391       .  A
C781        H785   1.084       .  S
C782        O786   1.372       .  S
O784        H788   0.992       .  S
O786        H787   0.992       .  S
C789        C790   1.397       .  A
C789        C794   1.422       .  A
C790        C791   1.404       .  A
C790        H795   1.080       .  S
C791        C792   1.416       .  A
C791        O796   1.372       .  S
C792        C793   1.399       .  A
C793        C794   1.404       .  A
C793        H797   1.084       .  S
C794        O798   1.373       .  S
O796        H800   0.992       .  S
O798        H799   0.992       .  S
C801        C802   1.404       .  A
C801        C806   1.397       .  A
C802        C803   1.399       .  A
C802        H807   1.082       .  S
C803        C804   1.405       .  A
C803        O808   1.372       .  S
C804        C805   1.408       .  A
C805        C806   1.383       .  A
C805        H809   1.084       .  S
C806        O810   1.373       .  S
O808        H812   0.992       .  S
O810        H811   0.991       .  S
C813        C814   1.404       .  A
C813        C818   1.398   1_655  A
C814        C815   1.388       .  A
C814        H819   1.084       .  S
C815        C816   1.404   1_655  A
C815        O820   1.372       .  S
C816        C817   1.410       .  A
C817        C818   1.387       .  A
C817        H821   1.084       .  S
C818        O822   1.372       .  S
O820        H824   0.992       .  S
O822        H823   0.992       .  S
C825        C826   1.415       .  A
C825        C830   1.408       .  A
C826        C827   1.399       .  A
C826        H831   1.083       .  S
C827        C828   1.400       .  A
C827        O832   1.371       .  S
C828        C829   1.411       .  A
C829        C830   1.404       .  A
C829        H833   1.084       .  S
C830        O834   1.371       .  S
O832        H836   0.991       .  S
O834        H835   0.992       .  S
C837        C838   1.410       .  A
C837        C842   1.402       .  A
C838        C839   1.387       .  A
C838        H843   1.084       .  S
C839        C840   1.399       .  A
C839        O844   1.372       .  S
C840        C841   1.407       .  A
C841        C842   1.385       .  A
C841        H845   1.084       .  S
C842        O846   1.372       .  S
O844        H848   0.992       .  S
O846        H847   0.992       .  S
C849        C850   1.407       .  A
C849        C854   1.399       .  A
C850        C851   1.387       .  A
C850        H855   1.084       .  S
C851        C852   1.395       .  A
C851        O856   1.372       .  S
C852        C853   1.402       .  A
C853        C854   1.387       .  A
C853        H857   1.083       .  S
C854        O858   1.371       .  S
O856        H860   0.992       .  S
O858        H859   0.992       .  S
C861        C862   1.405       .  A
C861        C866   1.409       .  A
C862        C863   1.397       .  A
C862        H867   1.084       .  S
C863        C864   1.409       .  A
C863        O868   1.372       .  S
C864        C865   1.405       .  A
C865        C866   1.394       .  A
C865        H869   1.084       .  S
C866        O870   1.372       .  S
O868        H872   0.992       .  S
O870        H871   0.992       .  S
C873        C874   1.412       .  A
C873        C878   1.401       .  A
C874        C875   1.407       .  A
C874        H879   1.084       .  S
C875        C876   1.408       .  A
C875        O880   1.372       .  S
C876        C877   1.415       .  A
C877        C878   1.398       .  A
C877        H881   1.084       .  S
C878        O882   1.372       .  S
O880        H884   0.991       .  S
O882        H883   0.992       .  S
C885        C886   1.410       .  A
C885        C890   1.401       .  A
C886        C887   1.386       .  A
C886        H891   1.083       .  S
C887        C888   1.399       .  A
C887        O892   1.372       .  S
C888        C889   1.407       .  A
C889        C890   1.384       .  A
C889        H893   1.084       .  S
C890        O894   1.372       .  S
O892        H896   0.992       .  S
O894        H895   0.992       .  S
C897        C898   1.399       .  A
C897        C902   1.400       .  A
C898        C899   1.393       .  A
C898        H903   1.084       .  S
C899        C900   1.413       .  A
C899        O904   1.372       .  S
C900        C901   1.407       .  A
C901        C902   1.393       .  A
C901        H905   1.080       .  S
C902        O906   1.372       .  S
O904        H908   0.992       .  S
O906        H907   0.992       .  S
C909        C910   1.391   1_655  A
C909        C914   1.406       .  A
C910        C911   1.390       .  A
C910        H915   1.084       .  S
C911        C912   1.417       .  A
C911        O916   1.372       .  S
C912        C913   1.390   1_455  A
C913        C914   1.379       .  A
C913        H917   1.080       .  S
C914        O918   1.369       .  S
O916        H920   0.991       .  S
O918        H919   0.993       .  S
C921        C922   1.414       .  A
C921        C926   1.408       .  A
C922        C923   1.403       .  A
C922        H927   1.084       .  S
C923        C924   1.404       .  A
C923        O928   1.372       .  S
C924        C925   1.413       .  A
C925        C926   1.412       .  A
C925        H929   1.084       .  S
C926        O930   1.373       .  S
O928        H932   0.992       .  S
O930        H931   0.991       .  S
C933        C934   1.398       .  A
C933        C938   1.416   1_654  A
C934        C935   1.386       .  A
C934        H939   1.084       .  S
C935        C936   1.408   1_655  A
C935        O940   1.373       .  S
C936        C937   1.393       .  A
C937        C938   1.384   1_554  A
C937        H941   1.084   1_554  S
C938        O942   1.373       .  S
O940        H944   0.992       .  S
O942        H943   0.992   1_556  S
C945        C946   1.405       .  A
C945        C950   1.404       .  A
C946        C947   1.399       .  A
C946        H951   1.084       .  S
C947        C948   1.410       .  A
C947        O952   1.371       .  S
C948        C949   1.407       .  A
C949        C950   1.392       .  A
C949        H953   1.084       .  S
C950        O954   1.372       .  S
O952        H956   0.992       .  S
O954        H955   0.992       .  S
C957        C958   1.392       .  A
C957        C962   1.411   1_454  A
C958        C959   1.384       .  A
C958        H963   1.084       .  S
C959        C960   1.418   1_455  A
C959        O964   1.372       .  S
C960        C961   1.398   1_554  A
C961        C962   1.390       .  A
C961        H965   1.084       .  S
C962        O966   1.373       .  S
O964        H968   0.992       .  S
O966        H967   0.992   1_556  S
C969        C970   1.402       .  A
C969        C974   1.405       .  A
C970        C971   1.401       .  A
C970        H975   1.084       .  S
C971        C972   1.407       .  A
C971        O976   1.372       .  S
C972        C973   1.401       .  A
C973        C974   1.393       .  A
C973        H977   1.084       .  S
C974        O978   1.372       .  S
O976        H980   0.992       .  S
O978        H979   0.992       .  S
C981        C982   1.400       .  A
C981        C986   1.420   1_554  A
C982        C983   1.401   1_665  A
C982        H987   1.084       .  S
C983        C984   1.421       .  A
C983        O988   1.372       .  S
C984        C985   1.402   1_544  A
C985        C986   1.405   1_455  A
C985        H989   1.083   1_565  S
C986        O990   1.373       .  S
O988        H992   0.991       .  S
O990        H991   0.992       .  S
C993        C994   1.411       .  A
C993        C998   1.408       .  A
C994        C995   1.417   1_565  A
C994        H999   1.083       .  S
C995        C996   1.410       .  A
C995       O1000   1.370       .  S
C996        C997   1.408       .  A
C997        C998   1.406   1_545  A
C997       H1001   1.084       .  S
C998       O1002   1.372       .  S
O1000      H1004   0.992       .  S
O1002      H1003   0.992       .  S
C1005      C1006   1.408       .  A
C1005      C1010   1.410       .  A
C1006      C1007   1.396       .  A
C1006      H1011   1.084       .  S
C1007      C1008   1.409       .  A
C1007      O1012   1.372       .  S
C1008      C1009   1.412       .  A
C1009      C1010   1.415       .  A
C1009      H1013   1.083       .  S
C1010      O1014   1.371       .  S
O1012      H1016   0.992       .  S
O1014      H1015   0.992       .  S
C1017      C1018   1.401       .  A
C1017      C1022   1.414       .  A
C1018      C1019   1.404       .  A
C1018      H1023   1.084       .  S
C1019      C1020   1.419       .  A
C1019      O1024   1.371       .  S
C1020      C1021   1.409       .  A
C1021      C1022   1.411       .  A
C1021      H1025   1.083       .  S
C1022      O1026   1.372       .  S
O1024      H1028   0.992       .  S
O1026      H1027   0.992       .  S
C1029      C1030   1.399       .  A
C1029      C1034   1.411       .  A
C1030      C1031   1.405       .  A
C1030      H1035   1.084       .  S
C1031      C1032   1.417       .  A
C1031      O1036   1.373       .  S
C1032      C1033   1.405       .  A
C1033      C1034   1.408       .  A
C1033      H1037   1.083       .  S
C1034      O1038   1.371       .  S
O1036      H1040   0.992       .  S
O1038      H1039   0.992       .  S
C1041      C1042   1.414   1_455  A
C1041      C1046   1.410       .  A
C1042      C1043   1.418       .  A
C1042      H1047   1.083       .  S
C1043      C1044   1.411       .  A
C1043      O1048   1.370       .  S
C1044      C1045   1.409       .  A
C1045      C1046   1.394   1_655  A
C1045      H1049   1.083       .  S
C1046      O1050   1.373       .  S
O1048      H1052   0.992       .  S
O1050      H1051   0.992       .  S
C1053      C1054   1.409       .  A
C1053      C1058   1.408       .  A
C1054      C1055   1.411       .  A
C1054      H1059   1.084       .  S
C1055      C1056   1.410       .  A
C1055      O1060   1.371       .  S
C1056      C1057   1.405       .  A
C1057      C1058   1.400       .  A
C1057      H1061   1.084       .  S
C1058      O1062   1.372       .  S
O1060      H1064   0.991       .  S
O1062      H1063   0.992       .  S
C1065      C1066   1.398       .  A
C1065      C1070   1.423       .  A
C1066      C1067   1.402       .  A
C1066      H1071   1.084       .  S
C1067      C1068   1.422       .  A
C1067      O1072   1.370       .  S
C1068      C1069   1.401       .  A
C1069      C1070   1.404       .  A
C1069      H1073   1.084       .  S
C1070      O1074   1.372       .  S
O1072      H1076   0.992       .  S
O1074      H1075   0.991       .  S
C1077      C1078   1.404       .  A
C1077      C1082   1.415   1_554  A
C1078      C1079   1.410       .  A
C1078      H1083   1.083       .  S
C1079      C1080   1.413   1_554  A
C1079      O1084   1.372       .  S
C1080      C1081   1.400       .  A
C1081      C1082   1.404       .  A
C1081      H1085   1.084       .  S
C1082      O1086   1.372       .  S
O1084      H1088   0.991       .  S
O1086      H1087   0.992       .  S
C1089      C1090   1.399       .  A
C1089      C1094   1.412       .  A
C1090      C1091   1.399       .  A
C1090      H1095   1.084       .  S
C1091      C1092   1.418       .  A
C1091      O1096   1.372       .  S
C1092      C1093   1.407       .  A
C1093      C1094   1.411       .  A
C1093      H1097   1.083       .  S
C1094      O1098   1.371       .  S
O1096      H1100   0.992       .  S
O1098      H1099   0.992       .  S
C1101      C1102   1.408       .  A
C1101      C1106   1.417       .  A
C1102      C1103   1.402       .  A
C1102      H1107   1.083       .  S
C1103      C1104   1.408       .  A
C1103      O1108   1.372       .  S
C1104      C1105   1.403       .  A
C1105      C1106   1.410       .  A
C1105      H1109   1.084       .  S
C1106      O1110   1.370       .  S
O1108      H1112   0.992       .  S
O1110      H1111   0.992       .  S
C1113      C1114   1.407       .  A
C1113      C1118   1.412   1_554  A
C1114      C1115   1.401       .  A
C1114      H1119   1.084       .  S
C1115      C1116   1.408       .  A
C1115      O1120   1.373       .  S
C1116      C1117   1.411   1_554  A
C1117      C1118   1.419       .  A
C1117      H1121   1.083       .  S
C1118      O1122   1.370       .  S
O1120      H1124   0.992       .  S
O1122      H1123   0.992       .  S
C1125      C1126   1.401       .  A
C1125      C1130   1.410       .  A
C1126      C1127   1.399       .  A
C1126      H1131   1.082       .  S
C1127      C1128   1.409       .  A
C1127      O1132   1.373       .  S
C1128      C1129   1.402       .  A
C1129      C1130   1.407       .  A
C1129      H1133   1.083       .  S
C1130      O1134   1.370       .  S
O1132      H1136   0.992       .  S
O1134      H1135   0.992       .  S
C1137      C1138   1.400       .  A
C1137      C1142   1.409       .  A
C1138      C1139   1.392       .  A
C1138      H1143   1.084       .  S
C1139      C1140   1.406       .  A
C1139      O1144   1.370       .  S
C1140      C1141   1.402       .  A
C1141      C1142   1.395       .  A
C1141      H1145   1.084       .  S
C1142      O1146   1.372       .  S
O1144      H1148   0.992       .  S
O1146      H1147   0.992       .  S
C1149      C1150   1.402       .  A
C1149      C1154   1.416       .  A
C1150      C1151   1.396       .  A
C1150      H1155   1.084       .  S
C1151      C1152   1.417       .  A
C1151      O1156   1.372       .  S
C1152      C1153   1.406       .  A
C1153      C1154   1.413       .  A
C1153      H1157   1.083       .  S
C1154      O1158   1.371       .  S
O1156      H1160   0.992       .  S
O1158      H1159   0.991       .  S
C1161      C1162   1.412       .  A
C1161      C1166   1.409   1_554  A
C1162      C1163   1.399       .  A
C1162      H1167   1.084       .  S
C1163      C1164   1.404   1_565  A
C1163      O1168   1.372   1_565  S
C1164      C1165   1.411   1_544  A
C1165      C1166   1.405       .  A
C1165      H1169   1.084   1_565  S
C1166      O1170   1.371       .  S
O1168      H1172   0.991   1_545  S
O1170      H1171   0.992   1_565  S
C1173      C1174   1.402       .  A
C1173      C1178   1.407       .  A
C1174      C1175   1.397       .  A
C1174      H1179   1.084       .  S
C1175      C1176   1.414       .  A
C1175      O1180   1.372       .  S
C1176      C1177   1.411       .  A
C1177      C1178   1.407       .  A
C1177      H1181   1.082       .  S
C1178      O1182   1.371       .  S
O1180      H1184   0.992       .  S
O1182      H1183   0.991       .  S
C1185      C1186   1.401       .  A
C1185      C1190   1.415       .  A
C1186      C1187   1.406       .  A
C1186      H1191   1.084       .  S
C1187      C1188   1.413       .  A
C1187      O1192   1.369       .  S
C1188      C1189   1.409       .  A
C1189      C1190   1.420       .  A
C1189      H1193   1.083       .  S
C1190      O1194   1.371       .  S
O1192      H1196   0.992       .  S
O1194      H1195   0.992       .  S
C1197      C1198   1.402       .  A
C1197      C1202   1.416       .  A
C1198      C1199   1.405       .  A
C1198      H1203   1.084   1_655  S
C1199      C1200   1.421       .  A
C1199      O1204   1.371       .  S
C1200      C1201   1.407       .  A
C1201      C1202   1.411       .  A
C1201      H1205   1.083       .  S
C1202      O1206   1.372       .  S
O1204      H1208   0.992       .  S
O1206      H1207   0.991       .  S
C1209      C1210   1.402       .  A
C1209      C1214   1.415       .  A
C1210      C1211   1.407       .  A
C1210      H1215   1.084       .  S
C1211      C1212   1.413       .  A
C1211      O1216   1.372       .  S
C1212      C1213   1.402       .  A
C1213      C1214   1.407       .  A
C1213      H1217   1.084       .  S
C1214      O1218   1.373       .  S
O1216      H1220   0.992       .  S
O1218      H1219   0.992       .  S
C1221      C1222   1.403       .  A
C1221      C1226   1.407       .  A
C1222      C1223   1.395       .  A
C1222      H1227   1.084       .  S
C1223      C1224   1.412       .  A
C1223      O1228   1.371       .  S
C1224      C1225   1.412       .  A
C1225      C1226   1.410       .  A
C1225      H1229   1.083       .  S
C1226      O1230   1.371       .  S
O1228      H1232   0.992       .  S
O1230      H1231   0.992       .  S
C1233      C1234   1.398       .  A
C1233      C1238   1.408       .  A
C1234      C1235   1.393       .  A
C1234      H1239   1.084       .  S
C1235      C1236   1.414       .  A
C1235      O1240   1.372       .  S
C1236      C1237   1.405       .  A
C1237      C1238   1.400       .  A
C1237      H1241   1.083       .  S
C1238      O1242   1.371       .  S
O1240      H1244   0.992       .  S
O1242      H1243   0.992       .  S
C1245      C1246   1.412       .  A
C1245      C1250   1.410   1_455  A
C1246      C1247   1.414       .  A
C1246      H1251   1.083       .  S
C1247      C1248   1.411       .  A
C1247      O1252   1.370       .  S
C1248      C1249   1.407       .  A
C1249      C1250   1.394   1_455  A
C1249      H1253   1.084       .  S
C1250      O1254   1.373       .  S
O1252      H1256   0.991       .  S
O1254      H1255   0.992       .  S
C1257      C1258   1.403       .  A
C1257      C1262   1.411   1_455  A
C1258      C1259   1.401   1_455  A
C1258      H1263   1.084       .  S
C1259      C1260   1.410       .  A
C1259      O1264   1.373       .  S
C1260      C1261   1.403       .  A
C1261      C1262   1.401       .  A
C1261      H1265   1.084       .  S
C1262      O1266   1.370   1_655  S
O1264      H1268   0.992   1_655  S
O1266      H1267   0.991       .  S
C1269      C1270   1.402       .  A
C1269      C1274   1.413       .  A
C1270      C1271   1.405   1_565  A
C1270      H1275   1.084       .  S
C1271      C1272   1.417       .  A
C1271      O1276   1.372       .  S
C1272      C1273   1.405       .  A
C1273      C1274   1.408   1_545  A
C1273      H1277   1.083       .  S
C1274      O1278   1.371       .  S
O1276      H1280   0.991       .  S
O1278      H1279   0.992       .  S
C1281      C1282   1.412       .  A
C1281      C1286   1.412       .  A
C1282      C1283   1.401       .  A
C1282      H1287   1.083       .  S
C1283      C1284   1.408       .  A
C1283      O1288   1.372       .  S
C1284      C1285   1.411       .  A
C1285      C1286   1.412       .  A
C1285      H1289   1.083       .  S
C1286      O1290   1.371       .  S
O1288      H1292   0.992       .  S
O1290      H1291   0.992       .  S
C1293      C1294   1.403       .  A
C1293      C1298   1.414       .  A
C1294      C1295   1.396       .  A
C1294      H1299   1.084       .  S
C1295      C1296   1.412       .  A
C1295      O1300   1.372       .  S
C1296      C1297   1.401       .  A
C1297      C1298   1.394       .  A
C1297      H1301   1.084       .  S
C1298      O1302   1.372       .  S
O1300      H1304   0.992       .  S
O1302      H1303   0.992       .  S
C1305      C1306   1.404       .  A
C1305      C1310   1.413       .  A
C1306      C1307   1.408       .  A
C1306      H1311   1.083       .  S
C1307      C1308   1.416       .  A
C1307      O1312   1.371       .  S
C1308      C1309   1.402       .  A
C1309      C1310   1.396       .  A
C1309      H1313   1.084       .  S
C1310      O1314   1.373       .  S
O1312      H1316   0.992       .  S
O1314      H1315   0.992       .  S
C1317      C1318   1.410       .  A
C1317      C1322   1.417       .  A
C1318      C1319   1.422       .  A
C1318      H1323   1.083       .  S
C1319      C1320   1.415       .  A
C1319      O1324   1.370       .  S
C1320      C1321   1.398       .  A
C1321      C1322   1.399       .  A
C1321      H1325   1.084       .  S
C1322      O1326   1.371       .  S
O1324      H1328   0.992       .  S
O1326      H1327   0.991       .  S
C1329      C1330   1.409       .  A
C1329      C1334   1.411       .  A
C1330      C1331   1.393   1_455  A
C1330      H1335   1.084       .  S
C1331      C1332   1.407       .  A
C1331      O1336   1.373       .  S
C1332      C1333   1.413   1_655  A
C1333      C1334   1.416       .  A
C1333      H1337   1.083       .  S
C1334      O1338   1.371       .  S
O1336      H1340   0.992       .  S
O1338      H1339   0.992       .  S
C1341      C1342   1.397       .  A
C1341      C1346   1.403       .  A
C1342      C1343   1.393       .  A
C1342      H1347   1.084       .  S
C1343      C1344   1.409       .  A
C1343      O1348   1.372       .  S
C1344      C1345   1.405       .  A
C1345      C1346   1.399       .  A
C1345      H1349   1.084       .  S
C1346      O1350   1.371       .  S
O1348      H1352   0.992       .  S
O1350      H1351   0.992       .  S
C1353      C1354   1.403       .  A
C1353      C1358   1.411       .  A
C1354      C1355   1.406       .  A
C1354      H1359   1.083       .  S
C1355      C1356   1.410       .  A
C1355      O1360   1.372       .  S
C1356      C1357   1.402       .  A
C1357      C1358   1.406       .  A
C1357      H1361   1.084       .  S
C1358      O1362   1.370       .  S
O1360      H1364   0.992       .  S
O1362      H1363   0.992       .  S
C1365      C1366   1.409       .  A
C1365      C1370   1.408       .  A
C1366      C1367   1.410       .  A
C1366      H1371   1.084       .  S
C1367      C1368   1.408       .  A
C1367      O1372   1.371       .  S
C1368      C1369   1.412       .  A
C1369      C1370   1.403       .  A
C1369      H1373   1.084       .  S
C1370      O1374   1.372       .  S
O1372      H1376   0.990       .  S
O1374      H1375   0.991       .  S
C1377      C1378   1.409       .  A
C1377      C1382   1.408       .  A
C1378      C1379   1.409       .  A
C1378      H1383   1.082       .  S
C1379      C1380   1.405       .  A
C1379      O1384   1.371       .  S
C1380      C1381   1.400       .  A
C1381      C1382   1.396       .  A
C1381      H1385   1.082       .  S
C1382      O1386   1.372       .  S
O1384      H1388   0.992       .  S
O1386      H1387   0.991       .  S
C1389      C1390   1.407       .  A
C1389      C1394   1.405       .  A
C1390      C1391   1.408       .  A
C1390      H1395   1.084       .  S
C1391      C1392   1.409       .  A
C1391      O1396   1.371       .  S
C1392      C1393   1.409       .  A
C1393      C1394   1.406       .  A
C1393      H1397   1.084       .  S
C1394      O1398   1.371       .  S
O1396      H1400   0.991       .  S
O1398      H1399   0.992       .  S
C1401      C1402   1.395       .  A
C1401      C1406   1.406       .  A
C1402      C1403   1.382   1_455  A
C1402      H1407   1.085       .  S
C1403      C1404   1.409       .  A
C1403      O1408   1.373       .  S
C1404      C1405   1.401       .  A
C1405      C1406   1.398   1_655  A
C1405      H1409   1.084       .  S
C1406      O1410   1.372       .  S
O1408      H1412   0.992       .  S
O1410      H1411   0.992       .  S
C1413      C1414   1.405   1_655  A
C1413      C1418   1.417       .  A
C1414      C1415   1.401   1_455  A
C1414      H1419   1.083       .  S
C1415      C1416   1.412       .  A
C1415      O1420   1.373       .  S
C1416      C1417   1.405       .  A
C1417      C1418   1.411       .  A
C1417      H1421   1.082       .  S
C1418      O1422   1.371       .  S
O1420      H1424   0.992   1_655  S
O1422      H1423   0.992       .  S
C1425      C1426   1.408       .  A
C1425      C1430   1.408       .  A
C1426      C1427   1.399       .  A
C1426      H1431   1.084       .  S
C1427      C1428   1.409       .  A
C1427      O1432   1.372       .  S
C1428      C1429   1.411       .  A
C1429      C1430   1.407       .  A
C1429      H1433   1.083       .  S
C1430      O1434   1.371       .  S
O1432      H1436   0.992       .  S
O1434      H1435   0.992       .  S
C1437      C1438   1.407       .  A
C1437      C1442   1.410       .  A
C1438      C1439   1.404       .  A
C1438      H1443   1.084       .  S
C1439      C1440   1.408       .  A
C1439      O1444   1.372       .  S
C1440      C1441   1.410       .  A
C1441      C1442   1.416       .  A
C1441      H1445   1.083       .  S
C1442      O1446   1.370       .  S
O1444      H1448   0.991       .  S
O1446      H1447   0.991       .  S
C1449      C1450   1.401   1_655  A
C1449      C1454   1.397       .  A
C1450      C1451   1.392       .  A
C1450      H1455   1.084       .  S
C1451      C1452   1.402       .  A
C1451      O1456   1.372       .  S
C1452      C1453   1.403       .  A
C1453      C1454   1.382   1_455  A
C1453      H1457   1.084       .  S
C1454      O1458   1.373       .  S
O1456      H1460   0.991       .  S
O1458      H1459   0.992       .  S
C1461      C1462   1.401   1_455  A
C1461      C1466   1.421       .  A
C1462      C1463   1.396   1_655  A
C1462      H1467   1.084       .  S
C1463      C1464   1.413       .  A
C1463      O1468   1.366       .  S
C1464      C1465   1.407       .  A
C1465      C1466   1.422       .  A
C1465      H1469   1.083       .  S
C1466      O1470   1.371       .  S
O1468      H1472   0.992       .  S
O1470      H1471   0.991       .  S
C1473      C1474   1.412       .  A
C1473      C1478   1.409   1_545  A
C1474      C1475   1.397   1_645  A
C1474      H1479   1.084       .  S
C1475      C1476   1.403       .  A
C1475      O1480   1.372       .  S
C1476      C1477   1.410       .  A
C1477      C1478   1.405   1_455  A
C1477      H1481   1.084       .  S
C1478      O1482   1.371   1_565  S
O1480      H1484   0.991   1_565  S
O1482      H1483   0.992   1_545  S
C1485      C1486   1.408       .  A
C1485      C1490   1.414       .  A
C1486      C1487   1.400       .  A
C1486      H1491   1.084       .  S
C1487      C1488   1.409       .  A
C1487      O1492   1.374       .  S
C1488      C1489   1.413       .  A
C1489      C1490   1.423       .  A
C1489      H1493   1.083       .  S
C1490      O1494   1.370       .  S
O1492      H1496   0.992       .  S
O1494      H1495   0.992       .  S
C1497      C1498   1.403       .  A
C1497      C1502   1.416       .  A
C1498      C1499   1.397       .  A
C1498      H1503   1.084       .  S
C1499      C1500   1.411       .  A
C1499      O1504   1.373       .  S
C1500      C1501   1.403       .  A
C1501      C1502   1.410       .  A
C1501      H1505   1.083       .  S
C1502      O1506   1.372       .  S
O1504      H1508   0.992       .  S
O1506      H1507   0.991       .  S
C1509      C1510   1.397       .  A
C1509      C1514   1.415       .  A
C1510      C1511   1.387       .  A
C1510      H1515   1.084       .  S
C1511      C1512   1.408       .  A
C1511      O1516   1.373       .  S
C1512      C1513   1.393       .  A
C1513      C1514   1.390       .  A
C1513      H1517   1.084       .  S
C1514      O1518   1.373       .  S
O1516      H1520   0.992       .  S
O1518      H1519   0.992       .  S
C1521      C1522   1.411       .  A
C1521      C1526   1.406       .  A
C1522      C1523   1.415       .  A
C1522      H1527   1.083       .  S
C1523      C1524   1.410       .  A
C1523      O1528   1.370       .  S
C1524      C1525   1.407       .  A
C1525      C1526   1.394       .  A
C1525      H1529   1.082       .  S
C1526      O1530   1.373       .  S
O1528      H1532   0.992       .  S
O1530      H1531   0.992       .  S
C1533      C1534   1.397       .  A
C1533      C1538   1.414       .  A
C1534      C1535   1.384   1_545  A
C1534      H1539   1.085       .  S
C1535      C1536   1.414       .  A
C1535      O1540   1.374       .  S
C1536      C1537   1.413       .  A
C1537      C1538   1.424   1_565  A
C1537      H1541   1.083       .  S
C1538      O1542   1.370       .  S
O1540      H1544   0.992       .  S
O1542      H1543   0.992       .  S
C1545      C1546   1.410   1_655  A
C1545      C1550   1.407       .  A
C1546      C1547   1.411       .  A
C1546      H1551   1.083       .  S
C1547      C1548   1.412       .  A
C1547      O1552   1.371       .  S
C1548      C1549   1.411       .  A
C1549      C1550   1.403   1_455  A
C1549      H1553   1.083       .  S
C1550      O1554   1.372       .  S
O1552      H1556   0.992       .  S
O1554      H1555   0.992       .  S
C1557      C1558   1.397       .  A
C1557      C1562   1.402       .  A
C1558      C1559   1.388   1_655  A
C1558      H1563   1.084       .  S
C1559      C1560   1.403       .  A
C1559      O1564   1.372       .  S
C1560      C1561   1.396   1_455  A
C1561      C1562   1.384       .  A
C1561      H1565   1.085       .  S
C1562      O1566   1.373       .  S
O1564      H1568   0.992       .  S
O1566      H1567   0.992       .  S
C1569      C1570   1.401       .  A
C1569      C1574   1.412       .  A
C1570      C1571   1.397       .  A
C1570      H1575   1.084       .  S
C1571      C1572   1.415       .  A
C1571      O1576   1.372       .  S
C1572      C1573   1.402       .  A
C1573      C1574   1.395       .  A
C1573      H1577   1.084       .  S
C1574      O1578   1.372       .  S
O1576      H1580   0.992       .  S
O1578      H1579   0.992       .  S
C1581      C1582   1.396       .  A
C1581      C1586   1.411       .  A
C1582      C1583   1.399       .  A
C1582      H1587   1.084       .  S
C1583      C1584   1.416       .  A
C1583      O1588   1.373       .  S
C1584      C1585   1.405       .  A
C1585      C1586   1.412       .  A
C1585      H1589   1.083       .  S
C1586      O1590   1.371       .  S
O1588      H1592   0.991       .  S
O1590      H1591   0.991       .  S
C1593      C1594   1.411       .  A
C1593      C1598   1.402       .  A
C1594      C1595   1.405       .  A
C1594      H1599   1.084       .  S
C1595      C1596   1.409       .  A
C1595      O1600   1.371       .  S
C1596      C1597   1.413       .  A
C1597      C1598   1.399       .  A
C1597      H1601   1.084       .  S
C1598      O1602   1.372       .  S
O1600      H1604   0.992       .  S
O1602      H1603   0.991       .  S
C1605      C1606   1.401       .  A
C1605      C1610   1.414   1_556  A
C1606      C1607   1.407       .  A
C1606      H1611   1.084       .  S
C1607      C1608   1.414   1_556  A
C1607      O1612   1.371       .  S
C1608      C1609   1.407       .  A
C1609      C1610   1.415       .  A
C1609      H1613   1.083       .  S
C1610      O1614   1.371       .  S
O1612      H1616   0.992       .  S
O1614      H1615   0.992       .  S
C1617      C1618   1.407       .  A
C1617      C1622   1.412       .  A
C1618      C1619   1.395       .  A
C1618      H1623   1.084       .  S
C1619      C1620   1.410       .  A
C1619      O1624   1.373       .  S
C1620      C1621   1.410       .  A
C1621      C1622   1.414       .  A
C1621      H1625   1.083       .  S
C1622      O1626   1.371       .  S
O1624      H1628   0.992       .  S
O1626      H1627   0.992       .  S
C1629      C1630   1.394       .  A
C1629      C1634   1.411       .  A
C1630      C1631   1.386       .  A
C1630      H1635   1.084       .  S
C1631      C1632   1.415       .  A
C1631      O1636   1.371       .  S
C1632      C1633   1.398       .  A
C1633      C1634   1.388       .  A
C1633      H1637   1.084       .  S
C1634      O1638   1.373       .  S
O1636      H1640   0.992       .  S
O1638      H1639   0.991       .  S
C1641      C1642   1.403       .  A
C1641      C1646   1.408       .  A
C1642      C1643   1.396       .  A
C1642      H1647   1.084       .  S
C1643      C1644   1.408       .  A
C1643      O1648   1.372       .  S
C1644      C1645   1.402       .  A
C1645      C1646   1.392       .  A
C1645      H1649   1.084       .  S
C1646      O1650   1.372       .  S
O1648      H1652   0.992       .  S
O1650      H1651   0.992       .  S
C1653      C1654   1.408       .  A
C1653      C1658   1.419       .  A
C1654      C1655   1.408       .  A
C1654      H1659   1.083       .  S
C1655      C1656   1.411       .  A
C1655      O1660   1.371       .  S
C1656      C1657   1.399       .  A
C1657      C1658   1.399       .  A
C1657      H1661   1.084       .  S
C1658      O1662   1.371       .  S
O1660      H1664   0.992       .  S
O1662      H1663   0.992       .  S
C1665      C1666   1.409   1_554  A
C1665      C1670   1.408       .  A
C1666      C1667   1.407       .  A
C1666      H1671   1.084       .  S
C1667      C1668   1.406       .  A
C1667      O1672   1.371       .  S
C1668      C1669   1.407   1_556  A
C1669      C1670   1.405       .  A
C1669      H1673   1.084       .  S
C1670      O1674   1.371       .  S
O1672      H1676   0.992       .  S
O1674      H1675   0.991       .  S
C1677      C1678   1.403       .  A
C1677      C1682   1.412       .  A
C1678      C1679   1.406       .  A
C1678      H1683   1.084       .  S
C1679      C1680   1.409       .  A
C1679      O1684   1.367       .  S
C1680      C1681   1.405       .  A
C1681      C1682   1.409       .  A
C1681      H1685   1.084       .  S
C1682      O1686   1.372       .  S
O1684      H1688   0.991       .  S
O1686      H1687   0.991       .  S
C1689      C1690   1.385       .  A
C1689      C1694   1.407       .  A
C1690      C1691   1.384       .  A
C1690      H1695   1.085   1_554  S
C1691      C1692   1.422       .  A
C1691      O1696   1.372   1_554  S
C1692      C1693   1.396       .  A
C1693      C1694   1.394       .  A
C1693      H1697   1.084       .  S
C1694      O1698   1.371       .  S
O1696      H1700   0.992       .  S
O1698      H1699   0.991       .  S
C1701      C1702   1.406       .  A
C1701      C1706   1.417       .  A
C1702      C1703   1.410       .  A
C1702      H1707   1.083       .  S
C1703      C1704   1.415       .  A
C1703      O1708   1.371       .  S
C1704      C1705   1.398       .  A
C1705      C1706   1.394       .  A
C1705      H1709   1.084       .  S
C1706      O1710   1.373       .  S
O1708      H1712   0.992       .  S
O1710      H1711   0.992       .  S
C1713      C1714   1.405       .  A
C1713      C1718   1.416   1_556  A
C1714      C1715   1.406       .  A
C1714      H1719   1.083       .  S
C1715      C1716   1.413   1_556  A
C1715      O1720   1.371       .  S
C1716      C1717   1.400       .  A
C1717      C1718   1.399       .  A
C1717      H1721   1.085       .  S
C1718      O1722   1.372       .  S
O1720      H1724   0.992       .  S
O1722      H1723   0.992       .  S
C1725      C1726   1.410       .  A
C1725      C1730   1.408       .  A
C1726      C1727   1.409       .  A
C1726      H1731   1.084       .  S
C1727      C1728   1.409       .  A
C1727      O1732   1.371       .  S
C1728      C1729   1.411       .  A
C1729      C1730   1.408       .  A
C1729      H1733   1.084       .  S
C1730      O1734   1.371       .  S
O1732      H1736   0.992       .  S
O1734      H1735   0.991       .  S
C1737      C1738   1.411       .  A
C1737      C1742   1.411       .  A
C1738      C1739   1.402       .  A
C1738      H1743   1.083       .  S
C1739      C1740   1.409       .  A
C1739      O1744   1.372       .  S
C1740      C1741   1.412       .  A
C1741      C1742   1.413       .  A
C1741      H1745   1.083       .  S
C1742      O1746   1.371       .  S
O1744      H1748   0.992       .  S
O1746      H1747   0.992       .  S
C1749      C1750   1.412       .  A
C1749      C1754   1.394       .  A
C1750      C1751   1.382       .  A
C1750      H1755   1.082       .  S
C1751      C1752   1.389       .  A
C1751      O1756   1.372       .  S
C1752      C1753   1.410       .  A
C1753      C1754   1.389       .  A
C1753      H1757   1.078       .  S
C1754      O1758   1.372       .  S
O1756      H1760   0.992       .  S
O1758      H1759   0.992       .  S
C1761      C1762   1.402       .  A
C1761      C1766   1.409       .  A
C1762      C1763   1.399       .  A
C1762      H1767   1.084       .  S
C1763      C1764   1.412       .  A
C1763      O1768   1.372       .  S
C1764      C1765   1.404       .  A
C1765      C1766   1.397       .  A
C1765      H1769   1.084       .  S
C1766      O1770   1.373       .  S
O1768      H1772   0.992       .  S
O1770      H1771   0.992       .  S
C1773      C1774   1.402       .  A
C1773      C1778   1.408       .  A
C1774      C1775   1.405       .  A
C1774      H1779   1.084       .  S
C1775      C1776   1.412       .  A
C1775      O1780   1.368       .  S
C1776      C1777   1.409       .  A
C1777      C1778   1.408       .  A
C1777      H1781   1.084       .  S
C1778      O1782   1.371       .  S
O1780      H1784   0.992       .  S
O1782      H1783   0.992       .  S
C1785      C1786   1.410       .  A
C1785      C1790   1.415       .  A
C1786      C1787   1.420   1_545  A
C1786      H1791   1.083       .  S
C1787      C1788   1.414       .  A
C1787      O1792   1.370       .  S
C1788      C1789   1.397       .  A
C1789      C1790   1.395   1_565  A
C1789      H1793   1.085       .  S
C1790      O1794   1.368       .  S
O1792      H1796   0.992       .  S
O1794      H1795   0.992       .  S
C1797      C1798   1.406       .  A
C1797      C1802   1.413       .  A
C1798      C1799   1.414       .  A
C1798      H1803   1.083       .  S
C1799      C1800   1.416       .  A
C1799      O1804   1.371       .  S
C1800      C1801   1.402   1_655  A
C1801      C1802   1.399   1_455  A
C1801      H1805   1.084       .  S
C1802      O1806   1.372       .  S
O1804      H1808   0.992       .  S
O1806      H1807   0.992       .  S
C1809      C1810   1.406       .  A
C1809      C1814   1.399   1_655  A
C1810      C1811   1.386       .  A
C1810      H1815   1.084       .  S
C1811      C1812   1.402   1_655  A
C1811      O1816   1.372       .  S
C1812      C1813   1.407       .  A
C1813      C1814   1.379       .  A
C1813      H1817   1.083       .  S
C1814      O1818   1.373       .  S
O1816      H1820   0.992       .  S
O1818      H1819   0.992       .  S
C1821      C1822   1.400       .  A
C1821      C1826   1.407       .  A
C1822      C1823   1.397       .  A
C1822      H1827   1.084       .  S
C1823      C1824   1.413       .  A
C1823      O1828   1.372       .  S
C1824      C1825   1.405       .  A
C1825      C1826   1.396       .  A
C1825      H1829   1.084       .  S
C1826      O1830   1.373       .  S
O1828      H1832   0.992       .  S
O1830      H1831   0.992       .  S
C1833      C1834   1.404       .  A
C1833      C1838   1.416       .  A
C1834      C1835   1.414       .  A
C1834      H1839   1.083       .  S
C1835      C1836   1.414       .  A
C1835      O1840   1.368       .  S
C1836      C1837   1.400       .  A
C1837      C1838   1.399       .  A
C1837      H1841   1.084       .  S
C1838      O1842   1.373       .  S
O1840      H1844   0.991       .  S
O1842      H1843   0.992       .  S
C1845      C1846   1.401       .  A
C1845      C1850   1.421       .  A
C1846      C1847   1.407       .  A
C1846      H1851   1.083       .  S
C1847      C1848   1.415       .  A
C1847      O1852   1.373       .  S
C1848      C1849   1.398       .  A
C1849      C1850   1.403       .  A
C1849      H1853   1.084       .  S
C1850      O1854   1.373       .  S
O1852      H1856   0.992       .  S
O1854      H1855   0.992       .  S
