geometry optimzed in LAMMPS
_audit_creation_date              2020-12-01 
_audit_creation_method            'lammps2cif' 
_symmetry_space_group_name_H-M    'P1' 
_symmetry_Int_Tables_number       1 
_symmetry_cell_setting            triclinic 
loop_ 
_symmetry_equiv_pos_as_xyz 
  x,y,z 
_cell_length_a                    46.91014684 
_cell_length_b                    47.12007176209138 
_cell_length_c                    42.09228262526959 
_cell_angle_alpha                 90.34745625838951 
_cell_angle_beta                  90.04459936215831 
_cell_angle_gamma                 89.76528655528749 
loop_ 
_atom_site_label 
_atom_site_type_symbol 
_atom_site_fract_x 
_atom_site_fract_y 
_atom_site_fract_z 
_atom_site_charge 
O1          O  0.06482754  0.46461262  0.51442527    -0.82500
C2          C  0.16052313  0.48714067  0.59009927     0.96800
O3          O  0.15052335  0.49453937  0.56337138    -0.71600
O4          O  0.11941889  0.48848995  0.50943779    -0.75200
Al5        Al  0.11036012  0.49662133  0.55326262     1.49000
C6          C  0.12138786  0.46594685  0.49291042     0.92100
O7          O  0.10919567  0.40245926  0.55121040    -0.81500
O8          O  0.08434813  0.42068899  0.60509393    -0.75000
Al9        Al  0.08893332  0.43661308  0.53573279     1.90100
O10         O  0.13967774  0.42030921  0.58505036    -0.74100
O11         O  0.08927215  0.47260973  0.62068715    -0.73900
O12         O  0.14590850  0.47176938  0.60805067    -0.79600
O13         O  0.09766935  0.01037112  0.59542424    -0.77800
O14         O  0.10463151  0.46041452  0.56322370    -1.13900
O15         O  0.06714806  0.00273991  0.54111250    -0.73100
C16         C  0.05777647  0.49024902  0.51957778     0.97600
C17         C  0.12967617  0.39899603  0.57075694     0.94000
Al18       Al  0.11410935  0.44761119  0.60144145     1.55600
O19         O  0.11809656  0.44196822  0.50569529    -0.77800
C20         C  0.09115471  0.49908726  0.61976897     0.98200
C21         C  0.06108890  0.41944225  0.59038616     0.93000
O22         O  0.05812747  0.43003889  0.56317182    -0.83100
O23         O  0.45756193  0.31521477  0.51756152    -0.82500
C24         C  0.36360432  0.28810210  0.59248356     0.96800
O25         O  0.37316336  0.28231418  0.56503582    -0.71600
O26         O  0.40299146  0.29148431  0.51155278    -0.75200
Al27       Al  0.41296386  0.28020274  0.55381520     1.49000
C28         C  0.40016037  0.31510816  0.49777388     0.92100
O29         O  0.41338520  0.37356614  0.56160687    -0.81500
O30         O  0.44189746  0.35107969  0.61347312    -0.75000
Al31       Al  0.43373669  0.34124804  0.54231947     1.90100
O32         O  0.38572395  0.35396532  0.59710357    -0.74100
O33         O  0.43691578  0.29766561  0.62264392    -0.73900
O34         O  0.37931190  0.30033677  0.61262394    -0.79600
O35         O  0.42262806  0.26164128  0.59357577    -0.77800
O36         O  0.41924662  0.31539475  0.56782771    -1.13900
O37         O  0.45206894  0.27397387  0.54008567    -0.73100
C38         C  0.46501240  0.28941787  0.52010077     0.97600
C39         C  0.39377247  0.37571106  0.58239718     0.94000
Al40       Al  0.41157168  0.32472803  0.60799242     1.55600
O41         O  0.40368342  0.33793301  0.51306479    -0.77800
C42         C  0.43491383  0.27144921  0.61810859     0.98200
C43         C  0.46407132  0.35430659  0.59719918     0.93000
O44         O  0.46538653  0.34628251  0.56871098    -0.83100
O45         O  0.21763883  0.18237222  0.63187384    -0.82500
C46         C  0.16095578  0.28694640  0.61865218     0.96800
O47         O  0.17463665  0.27237424  0.59880805    -0.71600
O48         O  0.22803026  0.26475005  0.61756196    -0.75200
Al49       Al  0.19910458  0.24058893  0.60168869     1.49000
C50         C  0.24958494  0.25416491  0.63123105     0.92100
O51         O  0.21207652  0.23647152  0.69677916    -0.81500
O52         O  0.14534190  0.19718673  0.66568623    -0.75000
Al53       Al  0.21388724  0.21056072  0.66333593     1.90100
O54         O  0.16558022  0.24372002  0.69737471    -0.74100
O55         O  0.13562494  0.22882744  0.61399724    -0.73900
O56         O  0.15572369  0.27679870  0.64587546    -0.79600
O57         O  0.17227200  0.21700380  0.58367477    -0.77800
O58         O  0.18871782  0.22937413  0.64034363    -1.13900
O59         O  0.22604883  0.21161332  0.59286034    -0.73100
C60         C  0.22767782  0.18739842  0.60477667     0.97600
C61         C  0.18960232  0.24343132  0.71118556     0.94000
Al62       Al  0.15352685  0.23624243  0.65456866     1.55600
O63         O  0.24688239  0.23178149  0.64777491    -0.77800
C64         C  0.14591293  0.21823218  0.58865930     0.98200
C65         C  0.16057503  0.18069556  0.68231345     0.93000
O66         O  0.18706621  0.18544258  0.68436428    -0.83100
O67         O  0.30200979  0.09762911  0.63521614    -0.82500
C68         C  0.36002320  0.49136321  0.61778601     0.96800
O69         O  0.34687653  0.00928624  0.59470109    -0.71600
O70         O  0.29361515  0.01621522  0.61272928    -0.75200
Al71       Al  0.32219177  0.04135120  0.59926366     1.49000
C72         C  0.27159447  0.02568905  0.62629470     0.92100
O73         O  0.30921517  0.03876905  0.69441414    -0.81500
O74         O  0.37464671  0.08280765  0.66487150    -0.75000
Al75       Al  0.30658655  0.06721259  0.66365076     1.90100
O76         O  0.35605279  0.03521513  0.69481485    -0.74100
O77         O  0.38535720  0.05306401  0.61190708    -0.73900
O78         O  0.36510036  0.00404948  0.64200392    -0.79600
O79         O  0.34863007  0.06596346  0.58285804    -0.77800
O80         O  0.33213725  0.05072691  0.63872124    -1.13900
O81         O  0.29531779  0.07097730  0.59301024    -0.73100
C82         C  0.29274610  0.09424721  0.60736206     0.97600
C83         C  0.33215268  0.03311854  0.70864429     0.94000
Al84       Al  0.36743680  0.04407730  0.65223371     1.55600
O85         O  0.27359411  0.04661704  0.64557888    -0.77800
C86         C  0.37494507  0.06530508  0.58768246     0.98200
C87         C  0.35989872  0.09692778  0.68465197     0.93000
O88         O  0.33357261  0.09114525  0.68732098    -0.83100
O89         O  0.31131152  0.42600304  0.89068471    -0.82500
C90         C  0.41425480  0.48500156  0.87228849     0.96800
O91         O  0.40214916  0.46768596  0.85386990    -0.71600
O92         O  0.39381981  0.41553926  0.87370615    -0.75200
Al93       Al  0.36964469  0.44366738  0.85646830     1.49000
C94         C  0.38288301  0.39403957  0.88636379     0.92100
O95         O  0.36908885  0.43540376  0.95061987    -0.81500
O96         O  0.32149402  0.00160548  0.91359141    -0.75000
Al97       Al  0.34083813  0.43120456  0.91991631     1.90100
O98         O  0.37003241  0.48229455  0.94996054    -0.74100
O99         O  0.35279148  0.01157939  0.86153959    -0.73900
O100        O  0.40205235  0.49293182  0.89768337    -0.79600
O101        O  0.34674895  0.46928467  0.83549126    -0.77800
O102        O  0.35768710  0.45581162  0.89434016    -1.13900
O103        O  0.33926622  0.41740075  0.84963238    -0.73100
C104        C  0.31529372  0.41626332  0.86306005     0.97600
C105        C  0.37294755  0.45884427  0.96452998     0.94000
Al106      Al  0.36163370  0.49194085  0.90628011     1.55600
O107        O  0.36106877  0.39722040  0.90396432    -0.77800
C108        C  0.34496457  0.49558340  0.83940543     0.98200
C109        C  0.30843035  0.48368788  0.93740831     0.93000
O110        O  0.31593917  0.45825989  0.94274349    -0.83100
O111        O  0.21989033  0.34889106  0.89066895    -0.82500
C112        C  0.11912741  0.28856908  0.86571511     0.96800
O113        O  0.13408849  0.30254061  0.84662388    -0.71600
O114        O  0.13884985  0.35530075  0.86596875    -0.75200
Al115      Al  0.16538902  0.32777415  0.85221832     1.49000
C116        C  0.14733990  0.37727225  0.88017527     0.92100
O117        O  0.15967152  0.33758486  0.94747732    -0.81500
O118        O  0.20886218  0.27589296  0.91555067    -0.75000
Al119      Al  0.18898749  0.34258915  0.91779907     1.90100
O120        O  0.16000790  0.29103323  0.94647183    -0.74100
O121        O  0.17868790  0.26497281  0.86249794    -0.73900
O122        O  0.12902294  0.28254523  0.89296586    -0.79600
O123        O  0.19132462  0.30246011  0.83532144    -0.77800
O124        O  0.17436067  0.31722962  0.89140552    -1.13900
O125        O  0.19454581  0.35521503  0.84744329    -0.73100
C126        C  0.21746105  0.35756766  0.86258980     0.97600
C127        C  0.15708762  0.31415688  0.96159434     0.94000
Al128      Al  0.16930941  0.28147039  0.90337567     1.55600
O129        O  0.16758859  0.37534002  0.90032933    -0.77800
C130        C  0.19029800  0.27610387  0.83843593     0.98200
C131        C  0.22199234  0.29072924  0.93610062     0.93000
O132        O  0.21395916  0.31619833  0.94088940    -0.83100
O133        O  0.08498350  0.09884900  0.78201726    -0.82500
C134        C  0.11004537  0.49007682  0.84159143     0.96800
O135        O  0.12098132  0.00378002  0.82366454    -0.71600
O136        O  0.10051833  0.02015756  0.76647009    -0.75200
Al137      Al  0.11763186  0.03994747  0.80105472     1.49000
C138        C  0.08135481  0.03025041  0.74850758     0.92100
O139        O  0.02704589  0.04447845  0.80371132    -0.81500
O140        O  0.07041994  0.07732869  0.87188138    -0.75000
Al141      Al  0.05851231  0.06973783  0.79529228     1.90100
O142        O  0.03663374  0.03388402  0.85297924    -0.74100
O143        O  0.11304449  0.04250634  0.87294958    -0.73900
O144        O  0.08086233  0.00012936  0.84993824    -0.79600
O145        O  0.13826635  0.05989421  0.83375612    -0.77800
O146        O  0.08384546  0.04967920  0.81783002    -1.13900
O147        O  0.12268010  0.07290631  0.77411819    -0.73100
C148        C  0.10909290  0.09566041  0.76900312     0.97600
C149        C  0.01968922  0.03411176  0.83004382     0.94000
Al150      Al  0.07592522  0.03945026  0.85804598     1.55600
O151        O  0.06470139  0.04971142  0.75736504    -0.77800
C152        C  0.13449120  0.05543548  0.86301262     0.98200
C153        C  0.05644362  0.09628285  0.85783286     0.93000
O154        O  0.04863441  0.09365292  0.82931773    -0.83100
O155        O  0.44555989  0.18519765  0.76738175    -0.82500
C156        C  0.41760825  0.28168445  0.84014143     0.96800
O157        O  0.41368835  0.27264978  0.81199632    -0.71600
O158        O  0.42283350  0.24081194  0.75901304    -0.75200
Al159      Al  0.41092827  0.23264455  0.80142339     1.49000
C160        C  0.44679851  0.24255259  0.74542117     0.92100
O161        O  0.50432853  0.23091514  0.81016358    -0.81500
O162        O  0.48129031  0.20436927  0.86254213    -0.75000
Al163      Al  0.47231100  0.20955184  0.79126989     1.90100
O164        O  0.48355301  0.25909104  0.84507538    -0.74100
O165        O  0.42691224  0.20809766  0.86981355    -0.73900
O166        O  0.42930779  0.26568146  0.86027622    -0.79600
O167        O  0.39163564  0.22500863  0.84125766    -0.77800
O168        O  0.44595762  0.22535387  0.81591823    -1.13900
O169        O  0.40390188  0.19393642  0.78883257    -0.73100
C170        C  0.41903204  0.17971649  0.76939434     0.97600
C171        C  0.00484033  0.25126356  0.82981724     0.94000
Al172      Al  0.45430570  0.23354829  0.85602041     1.55600
O173        O  0.46946773  0.23815645  0.76058974    -0.77800
C174        C  0.40078729  0.21264903  0.86593697     0.98200
C175        C  0.48762866  0.18247563  0.84707260     0.93000
O176        O  0.47854792  0.17868778  0.81919100    -0.83100
O177        O  0.31912665  0.21578666  0.01549165    -0.82500
C178        C  0.41509969  0.24383047  0.08890121     0.96800
O179        O  0.40371700  0.25036060  0.06262270    -0.71600
O180        O  0.37277303  0.24018010  0.00974545    -0.75200
Al181      Al  0.36346155  0.25070777  0.05292382     1.49000
C182        C  0.37602059  0.21658377  0.99547171     0.92100
O183        O  0.36401538  0.15660387  0.05729271    -0.81500
O184        O  0.33787976  0.17789058  0.11015584    -0.75000
Al185      Al  0.34359257  0.18952094  0.03954584     1.90100
O186        O  0.39390612  0.17604343  0.09064898    -0.74100
O187        O  0.34394513  0.23063389  0.12254348    -0.73900
O188        O  0.40108646  0.22927477  0.10859273    -0.79600
O189        O  0.35411539  0.26793500  0.09385045    -0.77800
O190        O  0.35866471  0.21504863  0.06558879    -1.13900
O191        O  0.32384818  0.25596427  0.04095861    -0.73100
C192        C  0.31103574  0.24123948  0.02009090     0.97600
C193        C  0.38444438  0.15420023  0.07702443     0.94000
Al194      Al  0.36844566  0.20459735  0.10463384     1.55600
O195        O  0.37323935  0.19359812  0.01033771    -0.77800
C196        C  0.34370782  0.25692297  0.11869895     0.98200
C197        C  0.31502943  0.17490791  0.09465863     0.93000
O198        O  0.31255676  0.18397053  0.06670835    -0.83100
O199        O  0.06060934  0.34833300  0.14112464    -0.82500
C200        C  0.11398432  0.24408426  0.11561010     0.96800
O201        O  0.10194907  0.26044113  0.09611932    -0.71600
O202        O  0.04813444  0.26920957  0.11250649    -0.75200
Al203      Al  0.07869049  0.29351817  0.10146738     1.49000
C204        C  0.02674853  0.27842550  0.12769309     0.92100
O205        O  0.06387872  0.28598350  0.19465312    -0.81500
O206        O  0.13147191  0.33023877  0.16996972    -0.75000
Al207      Al  0.06305088  0.31647820  0.16690415     1.90100
O208        O  0.11042219  0.28267401  0.19802062    -0.74100
O209        O  0.14226486  0.30022200  0.11581570    -0.73900
O210        O  0.11910557  0.25256953  0.14368604    -0.79600
O211        O  0.10707048  0.31766442  0.08738203    -0.77800
O212        O  0.08830694  0.30043252  0.14154480    -1.13900
O213        O  0.05362551  0.32480090  0.09668248    -0.73100
C214        C  0.05208330  0.34724147  0.11285947     0.97600
C215        C  0.08590504  0.28127643  0.21071521     0.94000
Al216      Al  0.12306316  0.29188235  0.15568195     1.55600
O217        O  0.02973150  0.29880556  0.14730407    -0.77800
C218        C  0.13314444  0.31296264  0.09131122     0.98200
C219        C  0.11647046  0.34389066  0.19006611     0.93000
O220        O  0.09023315  0.33793317  0.19244909    -0.83100
O221        O  0.21517602  0.06844970  0.01262543    -0.82500
C222        C  0.11761420  0.04425508  0.08405396     0.96800
O223        O  0.12798603  0.03826990  0.05701341    -0.71600
O224        O  0.16085167  0.04567683  0.00456765    -0.75200
Al225      Al  0.16844804  0.03597637  0.04850793     1.49000
C226        C  0.15868581  0.06908126  0.98980180     0.92100
O227        O  0.17054028  0.12968246  0.05132475    -0.81500
O228        O  0.19444853  0.11014548  0.10502216    -0.75000
Al229      Al  0.19097218  0.09607696  0.03489434     1.90100
O230        O  0.13920557  0.11096286  0.08342807    -0.74100
O231        O  0.18885513  0.05741964  0.11777965    -0.73900
O232        O  0.13204614  0.05856271  0.10369621    -0.79600
O233        O  0.17581499  0.01972984  0.09043331    -0.77800
O234        O  0.17441461  0.07163745  0.06063446    -1.13900
O235        O  0.20798493  0.02887523  0.03814670    -0.73100
C236        C  0.22186601  0.04271201  0.01761518     0.97600
C237        C  0.14907447  0.13244716  0.06961385     0.94000
Al238      Al  0.16435436  0.08318562  0.09923141     1.55600
O239        O  0.16233620  0.09231931  0.00414425    -0.77800
C240        C  0.18668102  0.03104171  0.11512146     0.98200
C241        C  0.21807310  0.11155646  0.09092282     0.93000
O242        O  0.22133619  0.10135545  0.06343276    -0.83100
O243        O  0.47153266  0.43572407  0.13789529    -0.82500
C244        C  0.41670828  0.03931404  0.11522149     0.96800
O245        O  0.43074930  0.02392812  0.09651377    -0.71600
O246        O  0.48345054  0.01416447  0.11453028    -0.75200
Al247      Al  0.45381509  0.49249120  0.10230848     1.49000
C248        C  0.00570573  0.00570661  0.12723254     0.92100
O249        O  0.46890612  0.49575759  0.19663823    -0.81500
O250        O  0.40095337  0.45377681  0.17001048    -0.75000
Al251      Al  0.46937152  0.46669805  0.16622164     1.90100
O252        O  0.41970297  0.99981403  0.19576039    -0.74100
O253        O  0.38997282  0.48291986  0.11654057    -0.73900
O254        O  0.40975598  0.02977202  0.14223981    -0.79600
O255        O  0.42598259  0.46919778  0.08659206    -0.77800
O256        O  0.44400075  0.48402924  0.14190929    -1.13900
O257        O  0.47920671  0.46163861  0.09571189    -0.73100
C258        C  0.48121290  0.43852824  0.11023133     0.97600
C259        C  0.44388874  0.00095215  0.20930955     0.94000
Al260      Al  0.40918352  0.49217582  0.15620223     1.55600
O261        O  0.00291597  0.48657831  0.14899775    -0.77800
C262        C  0.39970193  0.47091035  0.09172431     0.98200
C263        C  0.41590793  0.43905195  0.18895447     0.93000
O264        O  0.44234041  0.44429021  0.19091630    -0.83100
O265        O  0.47124170  0.10528089  0.38648054    -0.82500
C266        C  0.36770742  0.04790311  0.36695759     0.96800
O267        O  0.38207821  0.06182054  0.34725580    -0.71600
O268        O  0.38977876  0.11506106  0.36529208    -0.75200
Al269      Al  0.41449483  0.08580739  0.35100754     1.49000
C270        C  0.39925038  0.13656896  0.37981822     0.92100
O271        O  0.41332543  0.09692420  0.44719629    -0.81500
O272        O  0.45793481  0.03259562  0.41396239    -0.75000
Al273      Al  0.44128216  0.10030670  0.41540804     1.90100
O274        O  0.41063669  0.05034216  0.44619977    -0.74100
O275        O  0.42607126  0.02224352  0.36216786    -0.73900
O276        O  0.37824470  0.04198093  0.39388393    -0.79600
O277        O  0.43849961  0.05880638  0.33324176    -0.77800
O278        O  0.42449656  0.07528479  0.39009863    -1.13900
O279        O  0.44448273  0.11193556  0.34441571    -0.73100
C280        C  0.46789638  0.11416038  0.35859729     0.97600
C281        C  0.40891689  0.07369189  0.46113242     0.94000
Al282      Al  0.41850823  0.03979329  0.40296984     1.55600
O283        O  0.42023766  0.13369491  0.39886811    -0.77800
C284        C  0.43669514  0.03250633  0.33711740     0.98200
C285        C  0.47245702  0.04714701  0.43352176     0.93000
O286        O  0.46611392  0.07316649  0.43739022    -0.83100
O287        O  0.05669984  0.18462210  0.38561886    -0.82500
C288        C  0.15847653  0.24470651  0.36856796     0.96800
O289        O  0.14429158  0.23114122  0.34817790    -0.71600
O290        O  0.13789265  0.17765422  0.36353868    -0.75200
Al291      Al  0.11246597  0.20655940  0.35057488     1.49000
C292        C  0.12912798  0.15585723  0.37769360     0.92100
O293        O  0.11487610  0.19344258  0.44570212    -0.81500
O294        O  0.06766480  0.25683256  0.41608157    -0.75000
Al295      Al  0.08664540  0.18985775  0.41440773     1.90100
O296        O  0.11578230  0.24001584  0.44671434    -0.74100
O297        O  0.09923209  0.26960173  0.36456168    -0.73900
O298        O  0.14763349  0.25038300  0.39541966    -0.79600
O299        O  0.08780217  0.23341780  0.33402529    -0.77800
O300        O  0.10235365  0.21592691  0.39004562    -1.13900
O301        O  0.08308316  0.17992068  0.34285324    -0.73100
C302        C  0.05996890  0.17663076  0.35727514     0.97600
C303        C  0.11832197  0.21648172  0.46063327     0.94000
Al304      Al  0.10735179  0.25127311  0.40444490     1.55600
O305        O  0.10815662  0.15780993  0.39668706    -0.77800
C306        C  0.08902643  0.25965047  0.33903002     0.98200
C307        C  0.05401575  0.24110797  0.43513881     0.93000
O308        O  0.06145535  0.21536925  0.43765549    -0.83100
O309        O  0.33257461  0.34805944  0.26935984    -0.82500
C310        C  0.35921172  0.24917899  0.33885448     0.96800
O311        O  0.36379035  0.25923862  0.31143476    -0.71600
O312        O  0.35403403  0.29153683  0.25953664    -0.75200
Al313      Al  0.36631476  0.29950434  0.30212256     1.49000
C314        C  0.32997551  0.29025782  0.24586259     0.92100
O315        O  0.27291319  0.30392799  0.31020053    -0.81500
O316        O  0.29528387  0.32695714  0.36355693    -0.75000
Al317      Al  0.30568553  0.32421412  0.29253300     1.90100
O318        O  0.29244472  0.27262408  0.34213643    -0.74100
O319        O  0.34906136  0.32125401  0.37217212    -0.73900
O320        O  0.34627017  0.26427155  0.35912031    -0.79600
O321        O  0.38503005  0.30683177  0.34262039    -0.77800
O322        O  0.33128512  0.30667699  0.31643314    -1.13900
O323        O  0.37403519  0.33849701  0.29024712    -0.73100
C324        C  0.35901990  0.35333609  0.27142389     0.97600
C325        C  0.27067147  0.28254835  0.32841186     0.94000
Al326      Al  0.32177217  0.29702511  0.35580836     1.55600
O327        O  0.30727853  0.29635508  0.26041524    -0.77800
C328        C  0.37529408  0.31791245  0.36798091     0.98200
C329        C  0.29268193  0.35054017  0.35012568     0.93000
O330        O  0.30186982  0.35428592  0.32232449    -0.83100
O331        O  0.19491004  0.43197727  0.28253066    -0.82500
C332        C  0.16897913  0.04466815  0.33609898     0.96800
O333        O  0.15301637  0.02899483  0.31910835    -0.71600
O334        O  0.17083370  0.00904072  0.26224256    -0.75200
Al335      Al  0.15618477  0.48813252  0.30057978     1.49000
C336        C  0.19091326  0.00082327  0.24433900     0.92100
O337        O  0.24680234  0.49492088  0.29839143    -0.81500
O338        O  0.20907929  0.45809891  0.36973288    -0.75000
Al339      Al  0.21840113  0.46492254  0.29268818     1.90100
O340        O  0.23799226  0.50291060  0.34822849    -0.74100
O341        O  0.16403561  0.49016303  0.37225650    -0.73900
O342        O  0.19219246  0.03531363  0.34701323    -0.79600
O343        O  0.13842076  0.46921756  0.33570277    -0.77800
O344        O  0.19150879  0.48258433  0.31573817    -1.13900
O345        O  0.15351519  0.45287064  0.27794445    -0.73100
C346        C  0.16927626  0.43154413  0.27281880     0.97600
C347        C  0.25567461  0.00651164  0.32733978     0.94000
Al348      Al  0.19988694  0.49490346  0.35501092     1.55600
O349        O  0.20813196  0.48155576  0.25410470    -0.77800
C350        C  0.14291333  0.47572255  0.36432765     0.98200
C351        C  0.22727519  0.44233418  0.35642866     0.93000
O352        O  0.23345120  0.44474179  0.32739702    -0.83100
C353        C  0.28984977  0.39969973  0.36871752    -0.21000
C354        C  0.27686043  0.37322083  0.36586392    -0.07600
C355        C  0.24757785  0.37012883  0.37289816     0.13300
C356        C  0.23093071  0.39456525  0.37694960    -0.21100
C357        C  0.24334558  0.42130462  0.37412116    -0.07600
C358        C  0.27330559  0.42389078  0.37381654     0.13300
C359        C  0.28782486  0.45231373  0.37479882    -0.24400
H360        H  0.31257930  0.40175292  0.36460652     0.14500
H361        H  0.20792420  0.39277797  0.37737176     0.14600
C362        C  0.23328276  0.34157398  0.37243310    -0.24400
H363        H  0.30429413  0.45236581  0.39375404     0.04800
H364        H  0.27256685  0.46968333  0.38027100     0.08000
H365        H  0.29818898  0.45654198  0.35159849     0.08000
H366        H  0.24345536  0.32747987  0.39021883     0.08000
H367        H  0.23515255  0.33195687  0.34842758     0.08000
H368        H  0.21025058  0.34323216  0.37830404     0.04800
C369        C  0.19268074  0.25982264  0.32686326    -0.21000
C370        C  0.18750439  0.25447642  0.35929908    -0.07600
C371        C  0.21027707  0.25731748  0.38106079     0.13300
C372        C  0.23731047  0.26541230  0.36984499    -0.21100
C373        C  0.24215121  0.27157597  0.33756635    -0.07600
C374        C  0.21937739  0.26893865  0.31588864     0.13300
C375        C  0.22321319  0.27494873  0.28105763    -0.24400
H376        H  0.17554856  0.25719388  0.30983305     0.14500
H377        H  0.25466317  0.26778584  0.38665591     0.14600
C378        C  0.20653117  0.25119685  0.41590302    -0.24400
H379        H  0.20355890  0.27037290  0.26724547     0.04800
H380        H  0.24063495  0.26143140  0.27145375     0.08000
H381        H  0.22843166  0.29765409  0.27752369     0.08000
H382        H  0.19868449  0.22918512  0.41903723     0.08000
H383        H  0.19108556  0.26642965  0.42650546     0.08000
H384        H  0.22689506  0.25327863  0.42917450     0.04800
C385        C  0.15439676  0.07841576  0.37863591    -0.21000
C386        C  0.15939475  0.07342280  0.34612312    -0.07600
C387        C  0.15523221  0.09570975  0.32445687     0.13300
C388        C  0.14656426  0.12256998  0.33582576    -0.21100
C389        C  0.14095196  0.12755634  0.36832044    -0.07600
C390        C  0.14465769  0.10496693  0.38992980     0.13300
C391        C  0.13873358  0.10875697  0.42487366    -0.24400
H392        H  0.15749623  0.06114738  0.39521995     0.14500
H393        H  0.14321436  0.13958582  0.31899561     0.14600
C394        C  0.16020999  0.09120636  0.28945089    -0.24400
H395        H  0.14417112  0.08936049  0.43851004     0.04800
H396        H  0.11574990  0.11324221  0.42869758     0.08000
H397        H  0.15159748  0.12658663  0.43447803     0.08000
H398        H  0.14554024  0.07464154  0.28026778     0.08000
H399        H  0.18257286  0.08429527  0.28535456     0.08000
H400        H  0.15639611  0.11093655  0.27575513     0.04800
C401        C  0.01100501  0.17516932  0.33969834    -0.21000
C402        C  0.03713451  0.16107723  0.34248420    -0.07600
C403        C  0.03859312  0.13123110  0.34195560     0.13300
C404        C  0.01336675  0.11611332  0.34500311    -0.21100
C405        C  0.49094235  0.12952560  0.34400266    -0.07600
C406        C  0.48950228  0.15934437  0.34236874     0.13300
C407        C  0.46165791  0.17521411  0.34531441    -0.24400
H408        H  0.01045433  0.19819044  0.33948568     0.14500
H409        H  0.01403319  0.09328969  0.34823241     0.14600
C410        C  0.06665794  0.11556813  0.34205919    -0.24400
H411        H  0.46463357  0.19851153  0.34333695     0.04800
H412        H  0.45191455  0.17096989  0.36878188     0.08000
H413        H  0.44689737  0.16836594  0.32615273     0.08000
H414        H  0.07856582  0.12055850  0.36410693     0.08000
H415        H  0.07946476  0.12188940  0.32111128     0.08000
H416        H  0.06363692  0.09220982  0.34102173     0.04800
C417        C  0.38141637  0.17020112  0.33842356    -0.21000
C418        C  0.38804357  0.16541052  0.37067500    -0.07600
C419        C  0.38520965  0.18841887  0.39216993     0.13300
C420        C  0.37557413  0.21510270  0.38105709    -0.21100
C421        C  0.36947474  0.22007155  0.34862985    -0.07600
C422        C  0.37266218  0.19705806  0.32710217     0.13300
C423        C  0.36645062  0.20038039  0.29219403    -0.24400
H424        H  0.38389006  0.15285931  0.32160423     0.14500
H425        H  0.37321945  0.23242065  0.39791616     0.14600
C426        C  0.39170818  0.18482153  0.42695495    -0.24400
H427        H  0.36890382  0.18000692  0.27905210     0.04800
H428        H  0.38150492  0.21577613  0.28161821     0.08000
H429        H  0.34420979  0.20795077  0.28882168     0.08000
H430        H  0.41469097  0.18000291  0.43025047     0.08000
H431        H  0.37876186  0.16724948  0.43675412     0.08000
H432        H  0.38672204  0.20434716  0.44078902     0.04800
C433        C  0.28920694  0.02697654  0.36736846    -0.21000
C434        C  0.28437406  0.01887900  0.33530543    -0.07600
C435        C  0.30723285  0.02145712  0.31367079     0.13300
C436        C  0.33380718  0.03155402  0.32467823    -0.21100
C437        C  0.33878593  0.03804103  0.35704923    -0.07600
C438        C  0.31590146  0.03598637  0.37851549     0.13300
C439        C  0.31910600  0.04400388  0.41308825    -0.24400
H440        H  0.27204713  0.02567114  0.38448768     0.14500
H441        H  0.35106731  0.03386507  0.30781808     0.14600
C442        C  0.30548214  0.50308283  0.27974989    -0.24400
H443        H  0.29856452  0.04265627  0.42608731     0.04800
H444        H  0.32689389  0.06616400  0.41518387     0.08000
H445        H  0.33434875  0.02938397  0.42486472     0.08000
H446        H  0.29013641  0.51501696  0.26475416     0.08000
H447        H  0.29855266  0.48066187  0.28173946     0.08000
H448        H  0.32650440  0.50321290  0.26762953     0.04800
C449        C  0.37242969  0.41176762  0.20767353    -0.21000
C450        C  0.40206346  0.41642972  0.20989262    -0.07600
C451        C  0.41716886  0.40014647  0.23300052     0.13300
C452        C  0.40251173  0.38054831  0.25263031    -0.21100
C453        C  0.37285459  0.37598205  0.25051543    -0.07600
C454        C  0.35780760  0.39200662  0.22712779     0.13300
C455        C  0.32621200  0.38849731  0.22194804    -0.24400
H456        H  0.36034792  0.42379571  0.19037405     0.14500
H457        H  0.41461324  0.36844537  0.26984675     0.14600
C458        C  0.44891265  0.40301660  0.23747835    -0.24400
H459        H  0.31802104  0.40269547  0.20302043     0.04800
H460        H  0.31449920  0.39380755  0.24412241     0.08000
H461        H  0.32154760  0.36634962  0.21449734     0.08000
H462        H  0.45414996  0.42499991  0.24503768     0.08000
H463        H  0.46009180  0.39767644  0.21496697     0.08000
H464        H  0.45718262  0.38848666  0.25604510     0.04800
C465        C  0.46745289  0.02375706  0.29160167    -0.21000
C466        C  0.44387048  0.01501839  0.30949447    -0.07600
C467        C  0.42266004  0.99819529  0.29514643     0.13300
C468        C  0.42962472  0.49282006  0.26485280    -0.21100
C469        C  0.44514713  0.00601182  0.24369972    -0.07600
C470        C  0.46853419  0.01923943  0.25877578     0.13300
C471        C  0.49384239  0.03002494  0.24047289    -0.24400
H472        H  0.48385081  0.03640034  0.30299613     0.14500
H473        H  0.41552140  0.47722093  0.25422333     0.14600
C474        C  0.40718511  0.48169629  0.31726918    -0.24400
H475        H  0.50907439  0.04153157  0.25607288     0.04800
H476        H  0.48663413  0.04482763  0.22165451     0.08000
H477        H  0.50556560  0.01192691  0.22961651     0.08000
H478        H  0.39101752  0.49629146  0.32752728     0.08000
H479        H  0.41856579  0.47061509  0.33675296     0.08000
H480        H  0.39573892  0.46546397  0.30293945     0.04800
C481        C  0.21497783  0.01828588  0.19611025    -0.21000
C482        C  0.19052211  0.00690458  0.21014975    -0.07600
C483        C  0.16472372  0.49686142  0.19130893     0.13300
C484        C  0.16952611  0.00111001  0.15767622    -0.21100
C485        C  0.19269125  0.01509015  0.14405945    -0.07600
C486        C  0.21627901  0.02263264  0.16326409     0.13300
C487        C  0.24258789  0.03628560  0.14970864    -0.24400
H488        H  0.23292474  0.02430319  0.21091401     0.14500
H489        H  0.14801526  0.49659759  0.14368341     0.14600
C490        C  0.13764596  0.48511830  0.20515136    -0.24400
H491        H  0.26165646  0.02349731  0.15609937     0.04800
H492        H  0.24497210  0.05802513  0.15967071     0.08000
H493        H  0.24186718  0.03768065  0.12340350     0.08000
H494        H  0.12788812  0.50086621  0.22161011     0.08000
H495        H  0.14238135  0.46522342  0.21807891     0.08000
H496        H  0.12176097  0.48003783  0.18640823     0.04800
C497        C  0.03780592  0.02739597  0.08672458    -0.21000
C498        C  0.03468873  0.01603154  0.11750931    -0.07600
C499        C  0.05936477  0.01353241  0.13674274     0.13300
C500        C  0.08588190  0.02298574  0.12507660    -0.21100
C501        C  0.08893686  0.03389260  0.09416987    -0.07600
C502        C  0.06448108  0.03596748  0.07475042     0.13300
C503        C  0.06622937  0.04795677  0.04171197    -0.24400
H504        H  0.01924923  0.02907746  0.07148880     0.14500
H505        H  0.10456301  0.02150910  0.14014990     0.14600
C506        C  0.05702950  0.50675073  0.17397862    -0.24400
H507        H  0.04494701  0.04908081  0.03019255     0.04800
H508        H  0.08011213  0.03429556  0.02667009     0.08000
H509        H  0.07511358  0.06975474  0.04269354     0.08000
H510        H  0.05140246  0.48390895  0.17449792     0.08000
H511        H  0.04223930  0.01345740  0.18417207     0.08000
H512        H  0.07755029  0.50933093  0.18680024     0.04800
C513        C  0.15970174  0.36737091  0.21530725    -0.21000
C514        C  0.12974696  0.36597796  0.21211735    -0.07600
C515        C  0.11328467  0.38500152  0.23122523     0.13300
C516        C  0.12695231  0.40497199  0.25126818    -0.21100
C517        C  0.15685257  0.40687288  0.25391273    -0.07600
C518        C  0.17334183  0.38717881  0.23588250     0.13300
C519        C  0.20540386  0.38718249  0.23752614    -0.24400
H520        H  0.17270691  0.35272135  0.20160968     0.14500
H521        H  0.11389677  0.41959254  0.26496324     0.14600
C522        C  0.08111643  0.38503224  0.23065173    -0.24400
H523        H  0.21492543  0.37064823  0.22184400     0.04800
H524        H  0.21243521  0.38277842  0.26221071     0.08000
H525        H  0.21369138  0.40808798  0.22986589     0.08000
H526        H  0.07297721  0.36447640  0.23957624     0.08000
H527        H  0.07335289  0.38880062  0.20610122     0.08000
H528        H  0.07195008  0.40195568  0.24607805     0.04800
C529        C  0.05824139  0.26946260  0.29430419    -0.21000
C530        C  0.08227494  0.27746972  0.31190470    -0.07600
C531        C  0.10487838  0.29141802  0.29668617     0.13300
C532        C  0.10562392  0.29162465  0.26354444    -0.21100
C533        C  0.08339309  0.27976345  0.24550024    -0.07600
C534        C  0.05828591  0.27076695  0.26114288     0.13300
C535        C  0.03196149  0.26147045  0.24346442    -0.24400
H536        H  0.04062290  0.25933730  0.30641352     0.14500
H537        H  0.12372689  0.30112757  0.25171118     0.14600
C538        C  0.12883681  0.30478981  0.31524347    -0.24400
H539        H  0.01527519  0.25341509  0.25976733     0.04800
H540        H  0.03736662  0.24423685  0.22638268     0.08000
H541        H  0.02264961  0.27986638  0.23074800     0.08000
H542        H  0.13985892  0.28876614  0.32986274     0.08000
H543        H  0.12008985  0.32157691  0.33111347     0.08000
H544        H  0.14490816  0.31462440  0.29941344     0.04800
C545        C  0.00768224  0.36657178  0.09378904    -0.21000
C546        C  0.03651915  0.37114512  0.10071532    -0.07600
C547        C  0.04745602  0.39876330  0.10396878     0.13300
C548        C  0.02856528  0.42142237  0.10283224    -0.21100
C549        C  0.49965287  0.41664292  0.09774696    -0.07600
C550        C  0.48998448  0.38870889  0.09359670     0.13300
C551        C  0.45866648  0.38207982  0.09118100    -0.24400
H552        H  0.50285391  0.34494482  0.09252853     0.14500
H553        H  0.03626350  0.44276387  0.10735005     0.14600
C554        C  0.07847842  0.40428521  0.11085313    -0.24400
H555        H  0.45492048  0.35897836  0.08793118     0.04800
H556        H  0.44943206  0.39332760  0.07047657     0.08000
H557        H  0.44743440  0.38902326  0.11310674     0.08000
H558        H  0.09160159  0.39459256  0.09189969     0.08000
H559        H  0.08470239  0.39518486  0.13409883     0.08000
H560        H  0.08323003  0.42735566  0.11169280     0.04800
C561        C  0.13131226  0.21190103  0.07237155    -0.21000
C562        C  0.12254691  0.21524498  0.10425081    -0.07600
C563        C  0.12083611  0.19096272  0.12359826     0.13300
C564        C  0.12851084  0.16432655  0.11094132    -0.21100
C565        C  0.13826067  0.16104534  0.07942912    -0.07600
C566        C  0.13945292  0.18525783  0.05984049     0.13300
C567        C  0.14863318  0.18311806  0.02561423    -0.24400
H568        H  0.13216579  0.23036847  0.05720756     0.14500
H569        H  0.12764170  0.14595813  0.12625700     0.14600
C570        C  0.11021695  0.19276344  0.15734328    -0.24400
H571        H  0.14610401  0.20364356  0.01312516     0.04800
H572        H  0.13539124  0.16715081  0.01298323     0.08000
H573        H  0.17143369  0.17690617  0.02416172     0.08000
H574        H  0.08860481  0.20247581  0.15780721     0.08000
H575        H  0.12500655  0.20573631  0.17194645     0.08000
H576        H  0.10881100  0.17149449  0.16844596     0.04800
C577        C  0.34870048  0.30000772  0.19262948    -0.21000
C578        C  0.32910421  0.28516413  0.21143903    -0.07600
C579        C  0.30938573  0.26673807  0.19693234     0.13300
C580        C  0.31169447  0.26147483  0.16426437    -0.21100
C581        C  0.33375332  0.27355241  0.14617007    -0.07600
C582        C  0.35139406  0.29432249  0.16008520     0.13300
C583        C  0.37457286  0.30876120  0.14151035    -0.24400
H584        H  0.36284825  0.31524758  0.20378067     0.14500
H585        H  0.29807399  0.24559839  0.15339685     0.14600
C586        C  0.28738972  0.25106959  0.21600929    -0.24400
H587        H  0.38611833  0.32465405  0.15620710     0.04800
H588        H  0.36509010  0.31995006  0.12088499     0.08000
H589        H  0.39037524  0.29285876  0.13297832     0.08000
H590        H  0.27230207  0.26647805  0.22685007     0.08000
H591        H  0.29799479  0.23858335  0.23497823     0.08000
H592        H  0.27484830  0.23619518  0.20099755     0.04800
C593        C  0.26511997  0.17234308  0.11038785    -0.21000
C594        C  0.29151606  0.15863073  0.10755640    -0.07600
C595        C  0.29318888  0.12875102  0.10814047     0.13300
C596        C  0.26797742  0.11317905  0.10687142    -0.21100
C597        C  0.24164719  0.12707473  0.10507386    -0.07600
C598        C  0.23987278  0.15673938  0.10929494     0.13300
C599        C  0.21165474  0.17214799  0.10925386    -0.24400
H600        H  0.26423286  0.19534510  0.11017618     0.14500
H601        H  0.26888227  0.09028924  0.10411477     0.14600
C602        C  0.32132754  0.11331242  0.10668225    -0.24400
H603        H  0.21433749  0.19536809  0.11275083     0.04800
H604        H  0.19805298  0.16412464  0.12878875     0.08000
H605        H  0.20072090  0.16875656  0.08618743     0.08000
H606        H  0.33477446  0.11979146  0.12713477     0.08000
H607        H  0.33234840  0.11831955  0.08415349     0.08000
H608        H  0.31857537  0.08992947  0.10765095     0.04800
C609        C  0.49354760  0.26851605  0.08513074    -0.21000
C610        C  0.50078571  0.27060495  0.11753112    -0.07600
C611        C  0.47984057  0.26356465  0.14023814     0.13300
C612        C  0.45241517  0.25498425  0.13012328    -0.21100
C613        C  0.44483158  0.25341920  0.09766477    -0.07600
C614        C  0.46603161  0.26028313  0.07491143     0.13300
C615        C  0.46020144  0.25850296  0.03974291    -0.24400
H616        H  0.50947043  0.27396225  0.06757238     0.14500
H617        H  0.43666111  0.24963816  0.14789648     0.14600
C618        C  0.48665631  0.26403633  0.17517124    -0.24400
H619        H  0.47949201  0.26331334  0.02550317     0.04800
H620        H  0.44349673  0.27412612  0.03310012     0.08000
H621        H  0.45314162  0.23674495  0.03331183     0.08000
H622        H  0.98540181  0.29730976  0.17881800     0.08000
H623        H  0.99623122  0.26085180  0.18615135     0.08000
H624        H  0.46840705  0.25667410  0.18970548     0.04800
C625        C  0.40609507  0.09020592  0.12771899    -0.21000
C626        C  0.40893845  0.06872729  0.10476945    -0.07600
C627        C  0.40519488  0.07605747  0.07216585     0.13300
C628        C  0.39753341  0.10403094  0.06392806    -0.21100
C629        C  0.39492555  0.12551171  0.08687301    -0.07600
C630        C  0.39970940  0.11843850  0.11930940     0.13300
C631        C  0.39724010  0.14013602  0.14564952    -0.24400
H632        H  0.40932523  0.08493632  0.15249419     0.14500
H633        H  0.39382978  0.10929925  0.03923035     0.14600
C634        C  0.40895525  0.05474626  0.04555240    -0.24400
H635        H  0.40112991  0.13065813  0.16936496     0.04800
H636        H  0.37548683  0.14937185  0.14598342     0.08000
H637        H  0.41326270  0.15711565  0.14233071     0.08000
H638        H  0.39495879  0.03621217  0.04924863     0.08000
H639        H  0.43151926  0.04767001  0.04432631     0.08000
H640        H  0.40350593  0.06390395  0.02205460     0.04800
C641        C  0.37312121  0.23475867  0.90741113    -0.21000
C642        C  0.38314602  0.20939431  0.89410165    -0.07600
C643        C  0.38725012  0.18555749  0.91352858     0.13300
C644        C  0.38544963  0.18879120  0.94647683    -0.21100
C645        C  0.37893267  0.21526534  0.96044611    -0.07600
C646        C  0.37122168  0.23824802  0.94038832     0.13300
C647        C  0.36151767  0.26671015  0.95297455    -0.24400
H648        H  0.36982735  0.25293270  0.89211870     0.14500
H649        H  0.38962554  0.17052879  0.96133278     0.14600
C650        C  0.39421045  0.15693153  0.89928579    -0.24400
H651        H  0.35588313  0.28155459  0.93353793     0.04800
H652        H  0.37879898  0.27658517  0.96719893     0.08000
H653        H  0.34220188  0.26418941  0.96775870     0.08000
H654        H  0.41438204  0.15774797  0.88570598     0.08000
H655        H  0.37676994  0.15043473  0.88298240     0.08000
H656        H  0.39654429  0.14039918  0.91781594     0.04800
C657        C  0.14363936  0.08973491  0.90394724    -0.21000
C658        C  0.15344940  0.06538741  0.88799685    -0.07600
C659        C  0.16844587  0.04450940  0.90506222    -0.01100
C660        C  0.16977278  0.04644371  0.93822000    -0.21100
C661        C  0.15659762  0.06898144  0.95472215    -0.07600
C662        C  0.14461847  0.09170163  0.93722076     0.13300
C663        C  0.13097965  0.11704121  0.95324952    -0.24400
H664        H  0.13168431  0.10547034  0.89069115     0.14500
H665        H  0.18059732  0.02985501  0.95133684     0.14600
C666        C  0.18096065  0.01898506  0.88828009    -0.24400
H667        H  0.12068727  0.13144505  0.93582780     0.04800
H668        H  0.14734387  0.12956124  0.96613557     0.08000
H669        H  0.11433431  0.10987997  0.97011094     0.08000
H670        H  0.19678760  0.02609746  0.87046038     0.08000
H671        H  0.16400276  0.00676637  0.87598081     0.08000
H672        H  0.19190148  0.00449465  0.90511087     0.04800
C673        C  0.03599355  0.16920419  0.85663880    -0.21000
C674        C  0.50956873  0.16396109  0.85991192    -0.07600
C675        C  0.50378677  0.14285636  0.88245221     0.13300
C676        C  0.02012335  0.11987949  0.88826447    -0.21100
C677        C  0.04709069  0.12182636  0.87421556    -0.07600
C678        C  0.05618711  0.14785063  0.86159316     0.13300
C679        C  0.08640293  0.15167442  0.85029108    -0.24400
H680        H  0.04197396  0.18834354  0.84415244     0.14500
H681        H  0.52107846  0.10599716  0.90568336     0.14600
C682        C  0.47425655  0.13893832  0.89552804    -0.24400
H683        H  0.08982907  0.17321911  0.84046076     0.04800
H684        H  0.09164650  0.13594262  0.83145803     0.08000
H685        H  0.10125751  0.14869594  0.87054982     0.08000
H686        H  0.45939610  0.13384833  0.87578369     0.08000
H687        H  0.46712700  0.15873488  0.90761740     0.08000
H688        H  0.47346898  0.12139021  0.91298866     0.04800
C689        C  0.24937294  0.28844092  0.98785448    -0.21000
C690        C  0.24552166  0.27799159  0.95662702    -0.07600
C691        C  0.26349390  0.25526843  0.94668477     0.13300
C692        C  0.28396778  0.24364974  0.96794448    -0.21100
C693        C  0.28775035  0.25406383  0.99923810    -0.07600
C694        C  0.26992945  0.27694915  0.00903923     0.13300
C695        C  0.27173371  0.28895663  0.04222238    -0.24400
H696        H  0.23570628  0.30555355  0.99610334     0.14500
H697        H  0.29763654  0.22653403  0.95970733     0.14600
C698        C  0.26199282  0.24370097  0.91328089    -0.24400
H699        H  0.25513032  0.30538940  0.04659643     0.04800
H700        H  0.29278641  0.29907691  0.04600893     0.08000
H701        H  0.26865347  0.27176025  0.05980389     0.08000
H702        H  0.26512256  0.26115915  0.89602797     0.08000
H703        H  0.24101508  0.23355813  0.90908856     0.08000
H704        H  0.27871907  0.22741365  0.90879899     0.04800
C705        C  0.14836753  0.33999312  0.01194586    -0.21000
C706        C  0.15469158  0.31413536  0.99668747    -0.07600
C707        C  0.16241906  0.29032600  0.01557847     0.13300
C708        C  0.16078353  0.29253091  0.04874002    -0.21100
C709        C  0.15088891  0.31736129  0.06336118    -0.07600
C710        C  0.14666967  0.34189080  0.04497231     0.13300
C711        C  0.13880070  0.36999670  0.05963297    -0.24400
H712        H  0.14402694  0.35885046  0.99810341     0.14500
H713        H  0.16404485  0.27375978  0.06309028     0.14600
C714        C  0.17181188  0.26225491  0.00160516    -0.24400
H715        H  0.15497852  0.38607661  0.05310892     0.04800
H716        H  0.13789506  0.36897476  0.08595608     0.08000
H717        H  0.11775677  0.37684524  0.05031298     0.08000
H718        H  0.19104876  0.26518010  0.98677766     0.08000
H719        H  0.15435057  0.25296224  0.98715558     0.08000
H720        H  0.17745618  0.24665663  0.02028503     0.04800
C721        C  0.06840097  0.27784702  0.87870798    -0.21000
C722        C  0.08980035  0.27972279  0.85562857    -0.07600
C723        C  0.08243467  0.27395204  0.82336086     0.13300
C724        C  0.05459155  0.26507517  0.81564205    -0.21100
C725        C  0.03324810  0.26318464  0.83877798    -0.07600
C726        C  0.04025699  0.27025638  0.87076675     0.13300
C727        C  0.01858607  0.26904354  0.89715846    -0.24400
H728        H  0.07366484  0.28275538  0.90320555     0.14500
H729        H  0.04934820  0.25974594  0.79123847     0.14600
C730        C  0.10374099  0.27645172  0.79674745    -0.24400
H731        H  0.02803510  0.27461663  0.92056967     0.04800
H732        H  0.00991715  0.24725701  0.89898656     0.08000
H733        H  0.50221509  0.27514045  0.89797858     0.08000
H734        H  0.12250897  0.26293085  0.80180512     0.08000
H735        H  0.11043777  0.29887313  0.79409787     0.08000
H736        H  0.09472673  0.26950661  0.77357230     0.04800
C737        C  0.12327059  0.44011091  0.82905265    -0.21000
C738        C  0.11882881  0.46122344  0.85193946    -0.07600
C739        C  0.12263569  0.45445740  0.88446914     0.13300
C740        C  0.13172103  0.42698051  0.89311173    -0.21100
C741        C  0.13590829  0.40559055  0.87024198    -0.07600
C742        C  0.13116902  0.41233615  0.83763120     0.13300
C743        C  0.13511989  0.39084614  0.81128240    -0.24400
H744        H  0.12016321  0.44536325  0.80422700     0.14500
H745        H  0.13538453  0.42209625  0.91793696     0.14600
C746        C  0.11766559  0.47633411  0.91014943    -0.24400
H747        H  0.15730256  0.38272196  0.81130114     0.04800
H748        H  0.13111585  0.40017991  0.78751395     0.08000
H749        H  0.11990085  0.37309095  0.81419019     0.08000
H750        H  0.09508074  0.48341231  0.90980556     0.08000
H751        H  0.13171303  0.49486034  0.90638006     0.08000
H752        H  0.12224463  0.46773338  0.93413774     0.04800
C753        C  0.27979699  0.48799516  0.98835964    -0.21000
C754        C  0.28545594  0.00208124  0.95497978    -0.07600
C755        C  0.26955326  0.02630674  0.94538991     0.13300
C756        C  0.24956919  0.03897451  0.96643970    -0.21100
C757        C  0.24462525  0.02853728  0.99730336    -0.07600
C758        C  0.26071149  0.00449616  0.00702491     0.13300
C759        C  0.25643584  0.48988060  0.04219942    -0.24400
H760        H  0.29171315  0.46978680  0.99679639     0.14500
H761        H  0.23731066  0.05711260  0.95840485     0.14600
C762        C  0.27286842  0.03870000  0.91268379    -0.24400
H763        H  0.27139929  0.47205408  0.04686108     0.04800
H764        H  0.23613551  0.98392197  0.04344969     0.08000
H765        H  0.26078106  0.50685692  0.05995315     0.08000
H766        H  0.26886375  0.02209353  0.89440574     0.08000
H767        H  0.29467199  0.04734189  0.90977288     0.08000
H768        H  0.25759780  0.05636903  0.90850218     0.04800
C769        C  0.36148669  0.47954924  0.01685321    -0.21000
C770        C  0.37639139  0.45884052  0.99918708    -0.07600
C771        C  0.39127249  0.43708631  0.01519152     0.13300
C772        C  0.39270233  0.43803479  0.04829932    -0.21100
C773        C  0.38177551  0.46133985  0.06540628    -0.07600
C774        C  0.36395287  0.48101268  0.04997753     0.13300
C775        C  0.34883336  0.50430908  0.06807667    -0.24400
H776        H  0.34837240  0.49503628  0.00463252     0.14500
H777        H  0.40600519  0.42273707  0.06056968     0.14600
C778        C  0.40768270  0.41424387  0.99768281    -0.24400
H779        H  0.33551158  0.51761703  0.05215617     0.04800
H780        H  0.36437304  0.51840182  0.08011671     0.08000
H781        H  0.33467317  0.49479128  0.08620906     0.08000
H782        H  0.42275478  0.42409547  0.98070148     0.08000
H783        H  0.39283390  0.40005564  0.98471054     0.08000
H784        H  0.42030133  0.40078947  0.01414580     0.04800
C785        C  0.26633215  0.41632632  0.84500812    -0.21000
C786        C  0.29201164  0.40142673  0.84802139    -0.07600
C787        C  0.29268358  0.37157536  0.84606400     0.13300
C788        C  0.26690675  0.35706986  0.84619051    -0.21100
C789        C  0.24125658  0.37209041  0.84851797    -0.07600
C790        C  0.24055281  0.40181251  0.84548685     0.13300
C791        C  0.21295203  0.41829666  0.84643654    -0.24400
H792        H  0.26638448  0.43933792  0.84618388     0.14500
H793        H  0.26685298  0.33413978  0.84826202     0.14600
C794        C  0.32019885  0.35503919  0.84791191    -0.24400
H795        H  0.21655288  0.44149706  0.84435466     0.04800
H796        H  0.20175303  0.41447327  0.86921298     0.08000
H797        H  0.19915783  0.41155182  0.82638259     0.08000
H798        H  0.33069385  0.35908851  0.87108828     0.08000
H799        H  0.33458947  0.36149807  0.82834785     0.08000
H800        H  0.31659072  0.33181682  0.84578242     0.04800
C801        C  0.45139472  0.02176329  0.87570277    -0.21000
C802        C  0.44213843  0.49724411  0.86224030    -0.07600
C803        C  0.46518387  0.47994723  0.85195305     0.13300
C804        C  0.49012636  0.49266734  0.83994127    -0.21100
C805        C  0.49259455  0.02608509  0.84051018    -0.07600
C806        C  0.47715644  0.03502500  0.86775969     0.13300
C807        C  0.48713470  0.05944406  0.88804722    -0.24400
H808        H  0.43990155  0.02904793  0.89655423     0.14500
H809        H  0.01110927  0.47776806  0.84893646     0.14600
C810        C  0.46396887  0.44809685  0.85470466    -0.24400
H811        H  0.47144686  0.06511420  0.90681479     0.04800
H812        H  0.49005448  0.07827777  0.87273443     0.08000
H813        H  0.50743131  0.05401632  0.90012295     0.08000
H814        H  0.44683497  0.43952757  0.83925398     0.08000
H815        H  0.45973497  0.44212831  0.87973650     0.08000
H816        H  0.48432373  0.43793757  0.84726735     0.04800
C817        C  0.40055332  0.31441616  0.88326293    -0.21000
C818        C  0.40817120  0.31062783  0.85102921    -0.07600
C819        C  0.40804052  0.33466936  0.83108720     0.13300
C820        C  0.40081110  0.36149908  0.84385193    -0.21100
C821        C  0.39277379  0.36517784  0.87591313    -0.07600
C822        C  0.39237449  0.34111219  0.89572581     0.13300
C823        C  0.38398749  0.34356584  0.93015802    -0.24400
H824        H  0.40071633  0.29622985  0.89888524     0.14500
H825        H  0.40065604  0.37973373  0.82828575     0.14600
C826        C  0.41603399  0.33242934  0.79650111    -0.24400
H827        H  0.38707478  0.32325841  0.94288296     0.04800
H828        H  0.36116063  0.34959477  0.93212763     0.08000
H829        H  0.39732575  0.35981871  0.94215906     0.08000
H830        H  0.40057624  0.31866088  0.78379159     0.08000
H831        H  0.43783189  0.32338494  0.79414383     0.08000
H832        H  0.41580979  0.35346875  0.78474527     0.04800
C833        C  0.40313760  0.12585581  0.70095928    -0.21000
C834        C  0.37417701  0.11910499  0.70596015    -0.07600
C835        C  0.36050394  0.13233135  0.73244377     0.13300
C836        C  0.37583131  0.15118466  0.75253230    -0.21100
C837        C  0.40483325  0.15778233  0.74770326    -0.07600
C838        C  0.41844193  0.14482088  0.72100683     0.13300
C839        C  0.44908320  0.15094868  0.71287194    -0.24400
H840        H  0.41412416  0.11611166  0.68104389     0.14500
H841        H  0.36480389  0.16095687  0.77240224     0.14600
C842        C  0.32970516  0.12668321  0.74029985    -0.24400
H843        H  0.45613274  0.13925588  0.69125749     0.04800
H844        H  0.46316757  0.14433304  0.73272039     0.08000
H845        H  0.45176180  0.17394889  0.70819752     0.08000
H846        H  0.32670621  0.10379778  0.74540284     0.08000
H847        H  0.31590936  0.13317856  0.72014669     0.08000
H848        H  0.32255454  0.13878276  0.76159132     0.04800
C849        C  0.38997052  0.09705014  0.50953693    -0.21000
C850        C  0.40417437  0.07380924  0.49580376    -0.07600
C851        C  0.41581156  0.05255568  0.51593161     0.13300
C852        C  0.41076651  0.05398211  0.54858253    -0.21100
C853        C  0.39256257  0.07451126  0.56115342    -0.07600
C854        C  0.38370422  0.09749757  0.54203360     0.13300
C855        C  0.36684494  0.12197875  0.55570803    -0.24400
H856        H  0.38245725  0.11417537  0.49457919     0.14500
H857        H  0.41853507  0.03722496  0.56386371     0.14600
C858        C  0.43379771  0.02837793  0.50377380    -0.24400
H859        H  0.36331791  0.13891356  0.53787010     0.04800
H860        H  0.37859058  0.13136435  0.57609790     0.08000
H861        H  0.34563393  0.11478825  0.56376887     0.08000
H862        H  0.45275155  0.03735649  0.49237329     0.08000
H863        H  0.42159530  0.01496483  0.48688698     0.08000
H864        H  0.44138837  0.01434417  0.52316575     0.04800
C865        C  0.35194253  0.04131156  0.76196932    -0.21000
C866        C  0.33150023  0.02762118  0.74292767    -0.07600
C867        C  0.31049331  0.01064466  0.75723515     0.13300
C868        C  0.31214908  0.00570507  0.78992601    -0.21100
C869        C  0.33455700  0.01683300  0.80836518    -0.07600
C870        C  0.35521303  0.53090250  0.79755253     0.13300
C871        C  0.37984732  0.54327474  0.81583549    -0.24400
H872        H  0.36712847  0.05553704  0.75103531     0.14500
H873        H  0.29743193  0.99088655  0.80067749     0.14600
C874        C  0.28762355  0.99609236  0.73799609    -0.24400
H875        H  0.39270864  0.55794258  0.80112740     0.04800
H876        H  0.39404544  0.52586475  0.82377500     0.08000
H877        H  0.37181385  0.55530613  0.83676188     0.08000
H878        H  0.29754875  0.98283840  0.71907122     0.08000
H879        H  0.27330847  0.01210536  0.72707731     0.08000
H880        H  0.27425374  0.98206463  0.75291986     0.04800
C881        C  0.11903363  0.16114371  0.71367898    -0.21000
C882        C  0.14698296  0.15726723  0.70199727    -0.07600
C883        C  0.16193070  0.13261628  0.71213649     0.13300
C884        C  0.14907399  0.11344463  0.73371823    -0.21100
C885        C  0.12151344  0.11785030  0.74649772    -0.07600
C886        C  0.10632135  0.14224700  0.73571560     0.13300
C887        C  0.07659668  0.14889206  0.74718664    -0.24400
H888        H  0.10730805  0.17986656  0.70643685     0.14500
H889        H  0.16096459  0.09479468  0.74083231     0.14600
C890        C  0.19139214  0.12585938  0.69986818    -0.24400
H891        H  0.06801445  0.16862335  0.73642217     0.04800
H892        H  0.07668362  0.15200145  0.77334986     0.08000
H893        H  0.06199038  0.13132214  0.74063440     0.08000
H894        H  0.20682665  0.14190387  0.70855051     0.08000
H895        H  0.19125905  0.12551826  0.67347928     0.08000
H896        H  0.19901700  0.10480445  0.70810792     0.04800
C897        C  0.11478691  0.23556289  0.54824699    -0.21000
C898        C  0.12821916  0.21192336  0.56133816    -0.07600
C899        C  0.13537876  0.18850468  0.54189751     0.13300
C900        C  0.13189038  0.19060873  0.50911067    -0.21100
C901        C  0.12186273  0.21580312  0.49535839    -0.07600
C902        C  0.11238351  0.23840527  0.51537357     0.13300
C903        C  0.10056106  0.26602168  0.50290941    -0.24400
H904        H  0.10971890  0.25353771  0.56350496     0.14500
H905        H  0.13815260  0.17280660  0.49418457     0.14600
C906        C  0.14873111  0.16194827  0.55515479    -0.24400
H907        H  0.09405549  0.28071534  0.52235857     0.04800
H908        H  0.08142230  0.26190767  0.48832314     0.08000
H909        H  0.11696224  0.27708740  0.48865591     0.08000
H910        H  0.15003113  0.16251714  0.58148955     0.08000
H911        H  0.17059399  0.15928796  0.54544530     0.08000
H912        H  0.13573112  0.14326428  0.54824389     0.04800
C913        C  0.17722047  0.24048731  0.79974629    -0.21000
C914        C  0.19789506  0.25950030  0.81038740    -0.07600
C915        C  0.21824282  0.27019246  0.78881702     0.13300
C916        C  0.21484354  0.26481110  0.75643475    -0.21100
C917        C  0.19168287  0.24896193  0.74532953    -0.07600
C918        C  0.17334263  0.23558366  0.76730776     0.13300
C919        C  0.14992825  0.21585032  0.75704740    -0.24400
H920        H  0.16202521  0.23191359  0.81652869     0.14500
H921        H  0.22990775  0.27370983  0.73970834     0.14600
C922        C  0.24277872  0.28855779  0.79931057    -0.24400
H923        H  0.13792293  0.20725761  0.77757338     0.04800
H924        H  0.15965410  0.19769345  0.74434584     0.08000
H925        H  0.13441751  0.22701598  0.74158158     0.08000
H926        H  0.24428129  0.29014194  0.82556917     0.08000
H927        H  0.24025025  0.31021157  0.78937801     0.08000
H928        H  0.26311176  0.27924388  0.79057665     0.04800
C929        C  0.23061857  0.13895109  0.58663237    -0.21000
C930        C  0.24376335  0.16535068  0.58894003    -0.07600
C931        C  0.27364425  0.16773895  0.58687056     0.13300
C932        C  0.28997164  0.14311008  0.58920691    -0.21100
C933        C  0.27661660  0.11689446  0.59280181    -0.07600
C934        C  0.24685434  0.11433624  0.58901829     0.13300
C935        C  0.23182362  0.08628613  0.59146603    -0.24400
H936        H  0.20754610  0.13770131  0.58757848     0.14500
H937        H  0.31290322  0.14463498  0.59173330     0.14600
C938        C  0.28833359  0.19609619  0.58646640    -0.24400
H939        H  0.20839361  0.08854530  0.58848519     0.04800
H940        H  0.23575674  0.07689526  0.61514015     0.08000
H941        H  0.23963982  0.07183156  0.57255851     0.08000
H942        H  0.28412937  0.20750917  0.60902516     0.08000
H943        H  0.28040044  0.20885463  0.56618294     0.08000
H944        H  0.31180508  0.19378415  0.58397351     0.04800
C945        C  0.49909623  0.24972020  0.50475180    -0.21000
C946        C  0.48812906  0.27699121  0.49850727    -0.07600
C947        C  0.00746437  0.29614320  0.47946143     0.13300
C948        C  0.02705903  0.28300803  0.45828759    -0.21100
C949        C  0.03073076  0.25333621  0.45653082    -0.07600
C950        C  0.01373429  0.23655998  0.47728554     0.13300
C951        C  0.01602286  0.20463396  0.47789422    -0.24400
H952        H  0.49129261  0.23851717  0.52537397     0.14500
H953        H  0.04009477  0.29628056  0.44326397     0.14600
C954        C  0.00600368  0.32812243  0.47992419    -0.24400
H955        H  0.00037583  0.19506436  0.49442837     0.04800
H956        H  0.03756776  0.19817629  0.48612733     0.08000
H957        H  0.01180022  0.19580130  0.45383857     0.08000
H958        H  0.01017477  0.33616452  0.50434073     0.08000
H959        H  0.46389176  0.31832580  0.45684974     0.08000
H960        H  0.02210747  0.33771418  0.46396114     0.04800
C961        C  0.39007466  0.34255676  0.44896138    -0.21000
C962        C  0.39685947  0.31626892  0.46277726    -0.07600
C963        C  0.40414342  0.29300631  0.44255261     0.13300
C964        C  0.40260946  0.29638412  0.40958483    -0.21100
C965        C  0.39268845  0.32165049  0.39632128    -0.07600
C966        C  0.38785678  0.34546048  0.41603303     0.13300
C967        C  0.37868169  0.37369440  0.40276684    -0.24400
H968        H  0.38569799  0.36089135  0.46389218     0.14500
H969        H  0.40584912  0.27808978  0.39420806     0.14600
C970        C  0.41291088  0.26424941  0.45488031    -0.24400
H971        H  0.39392900  0.39034563  0.41045495     0.04800
H972        H  0.35708635  0.37924159  0.41170386     0.08000
H973        H  0.37815267  0.37355149  0.37639500     0.08000
H974        H  0.39535205  0.25497995  0.46905908     0.08000
H975        H  0.43244616  0.26615551  0.46951840     0.08000
H976        H  0.41782360  0.24907356  0.43532645     0.04800
C977        C  0.46806255  0.26294338  0.66164886    -0.21000
C978        C  0.44394020  0.25366911  0.64475327    -0.07600
C979        C  0.42382542  0.23634678  0.66000862     0.13300
C980        C  0.42575812  0.23286858  0.69291733    -0.21100
C981        C  0.44768908  0.24572057  0.71063822    -0.07600
C982        C  0.47023793  0.25922343  0.69454137     0.13300
C983        C  0.49556693  0.27140444  0.71187568    -0.24400
H984        H  0.48373540  0.27585835  0.64956914     0.14500
H985        H  0.40959625  0.22057939  0.70500561     0.14600
C986        C  0.39939180  0.22304437  0.64214271    -0.24400
H987        H  0.51019088  0.28266169  0.69551940     0.04800
H988        H  0.50796417  0.25410906  0.72324364     0.08000
H989        H  0.48827255  0.28680158  0.73024356     0.08000
H990        H  0.40787392  0.20900406  0.62307194     0.08000
H991        H  0.38578028  0.23964520  0.63137109     0.08000
H992        H  0.38574989  0.21005203  0.65792434     0.04800
C993        C  0.32954756  0.27041619  0.63328378    -0.21000
C994        C  0.33408897  0.28027747  0.60218037    -0.07600
C995        C  0.31027119  0.28402456  0.58206836     0.13300
C996        C  0.28291237  0.27680190  0.59306085    -0.21100
C997        C  0.27852560  0.26540133  0.62355865    -0.07600
C998        C  0.30231327  0.26238998  0.64400406     0.13300
C999        C  0.29925736  0.25103251  0.67722961    -0.24400
H1000       H  0.34757080  0.26845458  0.64922595     0.14500
H1001       H  0.26490620  0.27913297  0.57713429     0.14600
C1002       C  0.31341088  0.29639589  0.54932831    -0.24400
H1003       H  0.31965497  0.25212657  0.69059319     0.04800
H1004       H  0.29277902  0.22842543  0.67642557     0.08000
H1005       H  0.28309723  0.26367142  0.69047886     0.08000
H1006       H  0.32649699  0.28205798  0.53419670     0.08000
H1007       H  0.32378030  0.31750599  0.55097293     0.08000
H1008       H  0.29244683  0.29923098  0.53745817     0.04800
C1009       C  0.37156800  0.44090793  0.63150466    -0.21000
C1010       C  0.36698199  0.46135848  0.60788420    -0.07600
C1011       C  0.36886540  0.45245808  0.57545851     0.13300
C1012       C  0.37732864  0.42444759  0.56798747    -0.21100
C1013       C  0.38224303  0.40424610  0.59163163    -0.07600
C1014       C  0.37847968  0.41250951  0.62391861     0.13300
C1015       C  0.38241428  0.39184336  0.65080885    -0.24400
H1016       H  0.36947587  0.44711520  0.65623211     0.14500
H1017       H  0.37989107  0.41812429  0.54334218     0.14600
C1018       C  0.36216889  0.47202839  0.54821567    -0.24400
H1019       H  0.37945285  0.40217573  0.67437125     0.04800
H1020       H  0.40420222  0.38268821  0.65022853     0.08000
H1021       H  0.36647279  0.37458368  0.64884802     0.08000
H1022       H  0.39450920  0.99574358  0.55716860     0.08000
H1023       H  0.35910610  0.98766615  0.54244381     0.08000
H1024       H  0.36559841  0.46160274  0.52478156     0.04800
C1025       C  0.00056536  0.00529570  0.45105602    -0.21000
C1026       C  0.49498911  0.03284395  0.45432604    -0.07600
C1027       C  0.51463335  0.04801252  0.47383274     0.13300
C1028       C  0.02322049  0.03140219  0.50494148    -0.21100
C1029       C  0.03170536  0.00319454  0.49847387    -0.07600
C1030       C  0.01994528  0.99018950  0.47067023     0.13300
C1031       C  0.02449887  0.45963797  0.46678607    -0.24400
H1032       H  0.99184199  0.99475828  0.43029073     0.14500
H1033       H  0.03198540  0.04193300  0.52568893     0.14600
C1034       C  0.51767196  0.07976232  0.47152570    -0.24400
H1035       H  0.01071035  0.45216103  0.44700181     0.04800
H1036       H  0.04691929  0.45537933  0.45970459     0.08000
H1037       H  0.02178034  0.94523586  0.47972926     0.08000
H1038       H  0.49787618  0.09040592  0.47983003     0.08000
H1039       H  0.52222230  0.08577930  0.44657141     0.08000
H1040       H  0.53541660  0.08779188  0.48652839     0.04800
C1041       C  0.09674122  0.03946794  0.69445880    -0.21000
C1042       C  0.08055054  0.02264515  0.71501232    -0.07600
C1043       C  0.06171094  0.00230486  0.70265601     0.13300
C1044       C  0.06174507  0.99723685  0.66991444    -0.21100
C1045       C  0.08028502  0.01194370  0.64943407    -0.07600
C1046       C  0.09666825  0.03459580  0.66161951     0.13300
C1047       C  0.11462064  0.05315883  0.64057177    -0.24400
H1048       H  0.10977155  0.05635079  0.70429340     0.14500
H1049       H  0.05028585  0.48488942  0.66032627     0.14600
C1050       C  0.04206495  0.98516682  0.72330736    -0.24400
H1051       H  0.12569187  0.06997998  0.65441018     0.04800
H1052       H  0.10076546  0.06368217  0.62275405     0.08000
H1053       H  0.13114283  0.04050240  0.62804508     0.08000
H1054       H  0.01964002  0.98892523  0.71593153     0.08000
H1055       H  0.04871077  0.49155300  0.74908540     0.08000
H1056       H  0.04825809  0.46464338  0.71878768     0.04800
C1057       C  0.11324211  0.49063023  0.40723704    -0.21000
C1058       C  0.12466651  0.46746787  0.39062299    -0.07600
C1059       C  0.13187961  0.44266731  0.40737503     0.13300
C1060       C  0.13064596  0.44279855  0.44064101    -0.21100
C1061       C  0.12314282  0.46749499  0.45770569    -0.07600
C1062       C  0.11372778  0.49170025  0.44046981     0.13300
C1063       C  0.10223157  0.02136660  0.45616321    -0.24400
H1064       H  0.10814760  0.50975787  0.39410327     0.14500
H1065       H  0.13681446  0.42375087  0.45329371     0.14600
C1066       C  0.14330239  0.41664024  0.39077500    -0.24400
H1067       H  0.09619671  0.03815580  0.43896615     0.04800
H1068       H  0.11989067  0.02988720  0.47091054     0.08000
H1069       H  0.08702239  0.51609569  0.47214465     0.08000
H1070       H  0.16538545  0.41245440  0.39898079     0.08000
H1071       H  0.14347526  0.41897294  0.36455947     0.08000
H1072       H  0.12978954  0.39810414  0.39662554     0.04800
C1073       C  0.01167238  0.41818108  0.60742170    -0.21000
C1074       C  0.03765939  0.40393603  0.60401105    -0.07600
C1075       C  0.03950811  0.37429698  0.60789213     0.13300
C1076       C  0.01433635  0.35900901  0.61092923    -0.21100
C1077       C  0.48810758  0.36969552  0.61000978    -0.07600
C1078       C  0.48649589  0.39945916  0.61296020     0.13300
C1079       C  0.45836665  0.41484787  0.61522567    -0.24400
H1080       H  0.01086806  0.44106209  0.60490599     0.14500
H1081       H  0.01496981  0.33599512  0.61053374     0.14600
C1082       C  0.06743437  0.35854354  0.60527109    -0.24400
H1083       H  0.46121779  0.43818063  0.61720672     0.04800
H1084       H  0.44675901  0.40765557  0.63662419     0.08000
H1085       H  0.44541685  0.41055490  0.59371494     0.08000
H1086       H  0.08239992  0.36625040  0.62381322     0.08000
H1087       H  0.07675449  0.36198584  0.58141546     0.08000
H1088       H  0.06472787  0.33532723  0.60846635     0.04800
C1089       C  0.20791438  0.00159536  0.57609306    -0.21000
C1090       C  0.18947271  0.49629217  0.60089874    -0.07600
C1091       C  0.19721851  0.49884634  0.63359826     0.13300
C1092       C  0.22216780  0.01032713  0.63989221    -0.21100
C1093       C  0.24313238  0.01435126  0.61672079    -0.07600
C1094       C  0.23600243  0.00904969  0.58432888     0.13300
C1095       C  0.25760202  0.01135549  0.55792694    -0.24400
H1096       H  0.20468776  0.49934581  0.55296663     0.14500
H1097       H  0.22764673  0.01399093  0.66460300     0.14600
C1098       C  0.17733709  0.49080639  0.66022585    -0.24400
H1099       H  0.24797790  0.00714760  0.53425362     0.04800
H1100       H  0.27485580  0.99549471  0.56139258     0.08000
H1101       H  0.26678735  0.03293873  0.55732214     0.08000
H1102       H  0.17281967  0.46772047  0.65908759     0.08000
H1103       H  0.15713559  0.50287894  0.65866118     0.08000
H1104       H  0.18676464  0.49523797  0.68395074     0.04800
C1105       C  0.14691681  0.36691447  0.61383102    -0.21000
C1106       C  0.13851102  0.37001535  0.58174238    -0.07600
C1107       C  0.13613855  0.34528305  0.56276421     0.13300
C1108       C  0.14281961  0.31865120  0.57598732    -0.21100
C1109       C  0.15116519  0.31560953  0.60802890    -0.07600
C1110       C  0.15291671  0.34016294  0.62722306     0.13300
C1111       C  0.16182604  0.33838477  0.66153308    -0.24400
H1112       H  0.14816079  0.38556963  0.62894255     0.14500
H1113       H  0.14152796  0.29987933  0.56103668     0.14600
C1114       C  0.12714822  0.34673019  0.52843752    -0.24400
H1115       H  0.16279707  0.35968238  0.67292691     0.04800
H1116       H  0.18328327  0.32847319  0.66328151     0.08000
H1117       H  0.14623181  0.32546323  0.67492915     0.08000
H1118       H  0.14132253  0.36141672  0.51536383     0.08000
H1119       H  0.10474535  0.35419283  0.52668195     0.08000
H1120       H  0.12838108  0.32563515  0.51662034     0.04800
O1121       O  0.06210362  0.96363589  0.51383965    -0.82500
C1122       C  0.15796295  0.98793766  0.58877435     0.96800
O1123       O  0.14726890  0.99578880  0.56253649    -0.71600
O1124       O  0.11585560  0.98940527  0.50877510    -0.75200
Al1125     Al  0.10686136  0.99659181  0.55281607     1.49000
C1126       C  0.11833857  0.96723240  0.49170185     0.92100
O1127       O  0.10849362  0.90218762  0.54901987    -0.81500
O1128       O  0.08393391  0.91928808  0.60352035    -0.75000
Al1129     Al  0.08716860  0.93614156  0.53438433     1.90100
O1130       O  0.13894657  0.92060206  0.58238937    -0.74100
O1131       O  0.08783178  0.97091599  0.62048830    -0.73900
O1132       O  0.14410094  0.97174184  0.60652046    -0.79600
O1133       O  0.10150305  0.51136997  0.59560429    -0.77800
O1134       O  0.10244302  0.96006275  0.56214812    -1.13900
O1135       O  0.07097682  0.50388321  0.54114991    -0.73100
C1136       C  0.05436424  0.98899871  0.51931495     0.97600
C1137       C  0.12927802  0.89905870  0.56824533     0.94000
Al1138     Al  0.11290991  0.94692594  0.59994100     1.55600
O1139       O  0.11577415  0.94290640  0.50396239    -0.77800
C1140       C  0.08810325  0.99747291  0.61958260     0.98200
C1141       C  0.06050789  0.91763810  0.58922213     0.93000
O1142       O  0.05688502  0.92830829  0.56213349    -0.83100
O1143       O  0.45955404  0.81644584  0.52148340    -0.82500
C1144       C  0.36383030  0.79062716  0.59444785     0.96800
O1145       O  0.37410110  0.78403400  0.56754606    -0.71600
O1146       O  0.40475813  0.79275168  0.51449243    -0.75200
Al1147     Al  0.41415583  0.78199507  0.55717657     1.49000
C1148       C  0.40199786  0.81642015  0.50074049     0.92100
O1149       O  0.41493106  0.87554890  0.56306980    -0.81500
O1150       O  0.44126340  0.85415225  0.61614878    -0.75000
Al1151     Al  0.43540658  0.84279091  0.54528537     1.90100
O1152       O  0.38565448  0.85662481  0.59717064    -0.74100
O1153       O  0.43579057  0.80082727  0.62704770    -0.73900
O1154       O  0.37894698  0.80367797  0.61442371    -0.79600
O1155       O  0.42314470  0.76434297  0.59752819    -0.77800
O1156       O  0.42016611  0.81739658  0.57075147    -1.13900
O1157       O  0.45354822  0.77540297  0.54414247    -0.73100
C1158       C  0.46699712  0.79070966  0.52442212     0.97600
C1159       C  0.39435205  0.87815303  0.58254414     0.94000
Al1160     Al  0.41115455  0.82771436  0.61028412     1.55600
O1161       O  0.40594040  0.83927575  0.51574520    -0.77800
C1162       C  0.43416983  0.77453221  0.62262336     0.98200
C1163       C  0.46396225  0.85696416  0.60069640     0.93000
O1164       O  0.46636384  0.84800887  0.57261443    -0.83100
O1165       O  0.22121763  0.68556606  0.63986480    -0.82500
C1166       C  0.16151613  0.78759032  0.61809383     0.96800
O1167       O  0.17494564  0.77202702  0.59887393    -0.71600
O1168       O  0.22825072  0.76702435  0.61900146    -0.75200
Al1169     Al  0.20053803  0.74097809  0.60449658     1.49000
C1170       C  0.24983327  0.75817297  0.63403691     0.92100
O1171       O  0.21155320  0.74339552  0.70013718    -0.81500
O1172       O  0.14717022  0.69944278  0.66943426    -0.75000
Al1173     Al  0.21526401  0.71551204  0.66883147     1.90100
O1174       O  0.16490028  0.74768218  0.69946429    -0.74100
O1175       O  0.13745595  0.72903679  0.61592309    -0.73900
O1176       O  0.15621955  0.77854227  0.64583364    -0.79600
O1177       O  0.17474363  0.71525509  0.58780106    -0.77800
O1178       O  0.18996270  0.73179197  0.64372009    -1.13900
O1179       O  0.22874070  0.71246001  0.59853956    -0.73100
C1180       C  0.23147232  0.68926280  0.61259891     0.97600
C1181       C  0.18846129  0.74883506  0.71411866     0.94000
Al1182     Al  0.15435456  0.73834824  0.65659562     1.55600
O1183       O  0.24766774  0.73701161  0.65254398    -0.77800
C1184       C  0.14825609  0.71717542  0.59155335     0.98200
C1185       C  0.16255080  0.68445581  0.68769827     0.93000
O1186       O  0.18869955  0.69062099  0.69069848    -0.83100
O1187       O  0.30523608  0.59614128  0.64115012    -0.82500
C1188       C  0.35960177  0.99406093  0.61468043     0.96800
O1189       O  0.34856484  0.50786188  0.59809537    -0.71600
O1190       O  0.29549349  0.51602597  0.61462040    -0.75200
Al1191     Al  0.32495874  0.54073963  0.60311715     1.49000
C1192       C  0.27357042  0.52516240  0.62856308     0.92100
O1193       O  0.31006879  0.53491144  0.69778141    -0.81500
O1194       O  0.37711586  0.57864054  0.67126623    -0.75000
Al1195     Al  0.30864413  0.56452885  0.66817892     1.90100
O1196       O  0.35682662  0.53077779  0.69889054    -0.74100
O1197       O  0.38831532  0.54887302  0.61715242    -0.73900
O1198       O  0.36557256  0.50048661  0.64551652    -0.79600
O1199       O  0.35262268  0.56510469  0.58863654    -0.77800
O1200       O  0.33429570  0.54834879  0.64309810    -1.13900
O1201       O  0.29909740  0.57150472  0.59740002    -0.73100
C1202       C  0.29661246  0.59422648  0.61289426     0.97600
C1203       C  0.33273681  0.52872710  0.71225082     0.94000
Al1204     Al  0.36917215  0.54019635  0.65704915     1.55600
O1205       O  0.27560670  0.54538773  0.64870024    -0.77800
C1206       C  0.37881843  0.56165577  0.59284660     0.98200
C1207       C  0.36206296  0.59250390  0.69116048     0.93000
O1208       O  0.33567433  0.58693416  0.69312566    -0.83100
O1209       O  0.30839171  0.93050415  0.88765635    -0.82500
C1210       C  0.41192114  0.98726493  0.86710702     0.96800
O1211       O  0.39835486  0.97152552  0.84816042    -0.71600
O1212       O  0.39003749  0.91859082  0.86695019    -0.75200
Al1213     Al  0.36567857  0.94760910  0.85165601     1.49000
C1214       C  0.37955830  0.89736051  0.88075307     0.92100
O1215       O  0.36777412  0.93786937  0.94583162    -0.81500
O1216       O  0.32184980  0.49733776  0.91648676    -0.75000
Al1217     Al  0.33874824  0.93475593  0.91589081     1.90100
O1218       O  0.36920923  0.98461947  0.94658483    -0.74100
O1219       O  0.35308995  0.50746018  0.86492609    -0.73900
O1220       O  0.40101685  0.99359880  0.89378850    -0.79600
O1221       O  0.34224513  0.97400718  0.83277982    -0.77800
O1222       O  0.35539584  0.95921802  0.89028293    -1.13900
O1223       O  0.33484614  0.92174628  0.84553846    -0.73100
C1224       C  0.31131463  0.92080003  0.85989696     0.97600
C1225       C  0.37189880  0.96083532  0.96052062     0.94000
Al1226     Al  0.36090076  0.99492179  0.90283518     1.55600
O1227       O  0.35820330  0.90082312  0.89899865    -0.77800
C1228       C  0.34285898  0.00039037  0.83637488     0.98200
C1229       C  0.30804978  0.98785388  0.93444706     0.93000
O1230       O  0.31500798  0.96219181  0.93931571    -0.83100
O1231       O  0.21762835  0.85150722  0.89339539    -0.82500
C1232       C  0.11765614  0.78848987  0.87022781     0.96800
O1233       O  0.13253413  0.80234593  0.85093427    -0.71600
O1234       O  0.13654395  0.85564669  0.86868652    -0.75200
Al1235     Al  0.16351233  0.82812596  0.85573833     1.49000
C1236       C  0.14435530  0.87798199  0.88272748     0.92100
O1237       O  0.15830925  0.83925478  0.95141351    -0.81500
O1238       O  0.20750406  0.77783975  0.91960764    -0.75000
Al1239     Al  0.18704477  0.84455027  0.92097743     1.90100
O1240       O  0.15913315  0.79276993  0.95057246    -0.74100
O1241       O  0.17679991  0.76562280  0.86719725    -0.73900
O1242       O  0.12752384  0.78334885  0.89773904    -0.79600
O1243       O  0.19004869  0.80263207  0.83957993    -0.77800
O1244       O  0.17261494  0.81852741  0.89514113    -1.13900
O1245       O  0.19198965  0.85597796  0.85014826    -0.73100
C1246       C  0.21468882  0.85979124  0.86523128     0.97600
C1247       C  0.15655995  0.81583382  0.96573479     0.94000
Al1248     Al  0.16790446  0.78282928  0.90776547     1.55600
O1249       O  0.16451338  0.87670631  0.90315085    -0.77800
C1250       C  0.18837317  0.77629838  0.84291190     0.98200
C1251       C  0.22065332  0.79296123  0.93988235     0.93000
O1252       O  0.21281811  0.81862640  0.94402714    -0.83100
O1253       O  0.08619366  0.59805050  0.78238218    -0.82500
C1254       C  0.10421205  0.98947263  0.84099840     0.96800
O1255       O  0.12659466  0.50515950  0.82485927    -0.71600
O1256       O  0.10743105  0.52139827  0.76725321    -0.75200
Al1257     Al  0.12218549  0.54146343  0.80294186     1.49000
C1258       C  0.08750379  0.52977404  0.74926028     0.92100
O1259       O  0.03080895  0.54064092  0.80390132    -0.81500
O1260       O  0.07120691  0.57617996  0.87246310    -0.75000
Al1261     Al  0.06121580  0.56746888  0.79560841     1.90100
O1262       O  0.04050453  0.53090566  0.85329759    -0.74100
O1263       O  0.11595906  0.54368144  0.87492930    -0.73900
O1264       O  0.08643915  0.49983993  0.85081793    -0.79600
O1265       O  0.14108466  0.56199025  0.83634492    -0.77800
O1266       O  0.08741500  0.54916138  0.81882592    -1.13900
O1267       O  0.12613339  0.57501313  0.77721939    -0.73100
C1268       C  0.11125056  0.59673845  0.77129204     0.97600
C1269       C  0.02352494  0.53049110  0.83042018     0.94000
Al1270     Al  0.07932806  0.53863646  0.85892877     1.55600
O1271       O  0.06907694  0.54753797  0.75813605    -0.77800
C1272       C  0.13695740  0.55757533  0.86547628     0.98200
C1273       C  0.05584165  0.59382031  0.85799101     0.93000
O1274       O  0.04934804  0.59084961  0.82913605    -0.83100
O1275       O  0.44395159  0.68283843  0.77475510    -0.82500
C1276       C  0.41559564  0.78349917  0.84058442     0.96800
O1277       O  0.41140283  0.77283722  0.81324546    -0.71600
O1278       O  0.42178725  0.73908702  0.76264716    -0.75200
Al1279     Al  0.40911600  0.73233904  0.80485261     1.49000
C1280       C  0.44584866  0.73996790  0.74916047     0.92100
O1281       O  0.50254124  0.72944753  0.81480670    -0.81500
O1282       O  0.47947788  0.70729017  0.86871178    -0.75000
Al1283     Al  0.47026838  0.70784539  0.79728418     1.90100
O1284       O  0.48214025  0.76085460  0.84613704    -0.74100
O1285       O  0.42481508  0.71269092  0.87581885    -0.73900
O1286       O  0.42795816  0.76890432  0.86148851    -0.79600
O1287       O  0.38964210  0.72616903  0.84459497    -0.77800
O1288       O  0.44398102  0.72568089  0.82024367    -1.13900
O1289       O  0.40184037  0.69305043  0.79380737    -0.73100
C1290       C  0.41744601  0.67769684  0.77597693     0.97600
C1291       C  0.00459102  0.74764838  0.83316544     0.94000
Al1292     Al  0.45259822  0.73648426  0.85962318     1.55600
O1293       O  0.46841086  0.73439949  0.76416776    -0.77800
C1294       C  0.39864043  0.71567608  0.87036398     0.98200
C1295       C  0.48448837  0.68398135  0.85525248     0.93000
O1296       O  0.47490057  0.67874899  0.82787388    -0.83100
O1297       O  0.31546606  0.71672411  0.02112566    -0.82500
C1298       C  0.41299677  0.74507979  0.09067349     0.96800
O1299       O  0.40150817  0.75104257  0.06431576    -0.71600
O1300       O  0.36892074  0.74138309  0.01298601    -0.75200
Al1301     Al  0.36107274  0.75180053  0.05624562     1.49000
C1302       C  0.37183813  0.71789310  0.99856508     0.92100
O1303       O  0.36275035  0.65792065  0.06091020    -0.81500
O1304       O  0.33777788  0.67864037  0.11475546    -0.75000
Al1305     Al  0.34097034  0.69048184  0.04396245     1.90100
O1306       O  0.39300238  0.67791319  0.09359240    -0.74100
O1307       O  0.34256335  0.73182306  0.12594966    -0.73900
O1308       O  0.39919024  0.73123284  0.11108365    -0.79600
O1309       O  0.35319852  0.76911103  0.09736565    -0.77800
O1310       O  0.35658175  0.71615977  0.06922772    -1.13900
O1311       O  0.32120968  0.75722145  0.04579433    -0.73100
C1312       C  0.30785171  0.74239923  0.02545907     0.97600
C1313       C  0.38374727  0.65593110  0.08003469     0.94000
Al1314     Al  0.36728245  0.70603059  0.10804309     1.55600
O1315       O  0.36937967  0.69483201  0.01334726    -0.77800
C1316       C  0.34294155  0.75816173  0.12229238     0.98200
C1317       C  0.31461475  0.67509914  0.10016957     0.93000
O1318       O  0.31096088  0.68443653  0.07248678    -0.83100
O1319       O  0.06097050  0.84953461  0.14170395    -0.82500
C1320       C  0.11474017  0.74411293  0.11940222     0.96800
O1321       O  0.10245014  0.76009010  0.09967655    -0.71600
O1322       O  0.04830494  0.76990724  0.11505587    -0.75200
Al1323     Al  0.07939466  0.79358818  0.10394326     1.49000
C1324       C  0.02678368  0.77960804  0.12966706     0.92100
O1325       O  0.06359188  0.78863860  0.19788022    -0.81500
O1326       O  0.13176743  0.83121922  0.17234985    -0.75000
Al1327     Al  0.06318282  0.81819902  0.16865444     1.90100
O1328       O  0.11017095  0.78418179  0.20089078    -0.74100
O1329       O  0.14293818  0.80044542  0.11940053    -0.73900
O1330       O  0.11951350  0.75309131  0.14738859    -0.79600
O1331       O  0.10828206  0.81714024  0.08959275    -0.77800
O1332       O  0.08860376  0.80123876  0.14403017    -1.13900
O1333       O  0.05463663  0.82498827  0.09789243    -0.73100
C1334       C  0.05267018  0.84777836  0.11337862     0.97600
C1335       C  0.08568894  0.78312781  0.21359862     0.94000
Al1336     Al  0.12323879  0.79271935  0.15878015     1.55600
O1337       O  0.02978327  0.80010345  0.14919039    -0.77800
C1338       C  0.13431066  0.81291596  0.09458623     0.98200
C1339       C  0.11671717  0.84569391  0.19162429     0.93000
O1340       O  0.09035414  0.84017946  0.19372198    -0.83100
O1341       O  0.21652838  0.56702029  0.01512392    -0.82500
C1342       C  0.11793606  0.54503548  0.08648806     0.96800
O1343       O  0.12766299  0.53971426  0.05895065    -0.71600
O1344       O  0.16078303  0.54675791  0.00640523    -0.75200
Al1345     Al  0.16798723  0.53580142  0.04994715     1.49000
C1346       C  0.15972731  0.57051836  0.99228521     0.92100
O1347       O  0.17316944  0.62924401  0.05545076    -0.81500
O1348       O  0.19673501  0.60766200  0.10854554    -0.75000
Al1349     Al  0.19299703  0.59531015  0.03810563     1.90100
O1350       O  0.14177440  0.61077930  0.08785321    -0.74100
O1351       O  0.19031064  0.55461549  0.11918690    -0.73900
O1352       O  0.13327587  0.55799355  0.10642402    -0.79600
O1353       O  0.17473661  0.51827279  0.09121156    -0.77800
O1354       O  0.17553767  0.57090023  0.06310227    -1.13900
O1355       O  0.20712909  0.52713244  0.03916296    -0.73100
C1356       C  0.22194573  0.54079800  0.01930969     0.97600
C1357       C  0.15185276  0.63221501  0.07405440     0.94000
Al1358     Al  0.16622102  0.58171052  0.10219342     1.55600
O1359       O  0.16438003  0.59327214  0.00715718    -0.77800
C1360       C  0.18646942  0.52846349  0.11598063     0.98200
C1361       C  0.22030137  0.60921176  0.09450432     0.93000
O1362       O  0.22357267  0.59921424  0.06691013    -0.83100
O1363       O  0.46967964  0.93363432  0.13688820    -0.82500
C1364       C  0.41797425  0.54123042  0.11731456     0.96800
O1365       O  0.43068812  0.52525381  0.09802276    -0.71600
O1366       O  0.48380934  0.51649483  0.11524404    -0.75200
Al1367     Al  0.45306954  0.99077448  0.10075372     1.49000
C1368       C  0.00580438  0.50715911  0.12981604     0.92100
O1369       O  0.46643009  0.99412679  0.19486194    -0.81500
O1370       O  0.39900361  0.95147945  0.16792410    -0.75000
Al1371     Al  0.46741784  0.96478655  0.16492112     1.90100
O1372       O  0.42220643  0.50166424  0.19811976    -0.74100
O1373       O  0.38860970  0.98043215  0.11369958    -0.73900
O1374       O  0.41215680  0.53205814  0.14485539    -0.79600
O1375       O  0.42508000  0.96828727  0.08366148    -0.77800
O1376       O  0.44238106  0.98206017  0.14003022    -1.13900
O1377       O  0.47768315  0.95944442  0.09460189    -0.73100
C1378       C  0.47932166  0.93633040  0.10917789     0.97600
C1379       C  0.44654721  0.50280653  0.21123946     0.94000
Al1380     Al  0.40720692  0.98994409  0.15369671     1.55600
O1381       O  0.00266035  0.98472844  0.14588655    -0.77800
C1382       C  0.39872797  0.96943737  0.08850226     0.98200
C1383       C  0.41389146  0.93760375  0.18774753     0.93000
O1384       O  0.44024252  0.94294966  0.18954338    -0.83100
O1385       O  0.46630768  0.60597355  0.39438097    -0.82500
C1386       C  0.36526277  0.54716134  0.36579105     0.96800
O1387       O  0.37956461  0.56280959  0.34779113    -0.71600
O1388       O  0.38540143  0.61535210  0.36997589    -0.75200
Al1389     Al  0.41123094  0.58729643  0.35476088     1.49000
C1390       C  0.39459246  0.63652257  0.38537215     0.92100
O1391       O  0.40569849  0.59360239  0.45069435    -0.81500
O1392       O  0.45428148  0.53231204  0.41740406    -0.75000
Al1393     Al  0.43522417  0.59919286  0.42123178     1.90100
O1394       O  0.40470072  0.54709774  0.44706670    -0.74100
O1395       O  0.42553543  0.52363470  0.36280264    -0.73900
O1396       O  0.37522220  0.53978425  0.39251788    -0.79600
O1397       O  0.43632227  0.56194942  0.33602380    -0.77800
O1398       O  0.42027989  0.57496825  0.39353799    -1.13900
O1399       O  0.44091296  0.61407370  0.35144238    -0.73100
C1400       C  0.46380575  0.61575442  0.36674243     0.97600
C1401       C  0.40227767  0.56962012  0.46342524     0.94000
Al1402     Al  0.41507993  0.53875286  0.40396876     1.55600
O1403       O  0.41474892  0.63293097  0.40526113    -0.77800
C1404       C  0.43621010  0.53546633  0.33865336     0.98200
C1405       C  0.46707931  0.54634914  0.43892420     0.93000
O1406       O  0.45955949  0.57191362  0.44359092    -0.83100
O1407       O  0.05972773  0.68244510  0.38655016    -0.82500
C1408       C  0.16113073  0.74318459  0.37165673     0.96800
O1409       O  0.14782022  0.72876715  0.35135195    -0.71600
O1410       O  0.14144085  0.67523582  0.36672602    -0.75200
Al1411     Al  0.11624398  0.70417788  0.35294247     1.49000
C1412       C  0.13195786  0.65331759  0.38007534     0.92100
O1413       O  0.11690417  0.69086826  0.44810681    -0.81500
O1414       O  0.06943472  0.75392789  0.41814549    -0.75000
Al1415     Al  0.08911707  0.68735650  0.41611696     1.90100
O1416       O  0.11792390  0.73751781  0.44878902    -0.74100
O1417       O  0.10085859  0.76723135  0.36686024    -0.73900
O1418       O  0.14967726  0.74919855  0.39806687    -0.79600
O1419       O  0.09212359  0.73087073  0.33542691    -0.77800
O1420       O  0.10513114  0.71360433  0.39215080    -1.13900
O1421       O  0.08700357  0.67765522  0.34442204    -0.73100
C1422       C  0.06348263  0.67479066  0.35812850     0.97600
C1423       C  0.12053084  0.71403218  0.46283901     0.94000
Al1424     Al  0.10932331  0.74900351  0.40669021     1.55600
O1425       O  0.11062270  0.65545664  0.39846756    -0.77800
C1426       C  0.09161118  0.75703485  0.34099188     0.98200
C1427       C  0.05604649  0.73804859  0.43723461     0.93000
O1428       O  0.06360427  0.71235927  0.43945646    -0.83100
O1429       O  0.33312278  0.84741735  0.27193032    -0.82500
C1430       C  0.36140851  0.75082901  0.34352217     0.96800
O1431       O  0.36644690  0.76068798  0.31610154    -0.71600
O1432       O  0.35671986  0.79203517  0.26360346    -0.75200
Al1433     Al  0.36819901  0.80088913  0.30614380     1.49000
C1434       C  0.33274592  0.78957886  0.25002428     0.92100
O1435       O  0.27483516  0.80250157  0.31328803    -0.81500
O1436       O  0.29577612  0.82742629  0.36628360    -0.75000
Al1437     Al  0.30693563  0.82331493  0.29546740     1.90100
O1438       O  0.29484502  0.77249492  0.34628335    -0.74100
O1439       O  0.34972595  0.82340895  0.37532721    -0.73900
O1440       O  0.34863337  0.76616257  0.36367688    -0.79600
O1441       O  0.38630610  0.80921769  0.34659804    -0.77800
O1442       O  0.33285495  0.80725061  0.32003391    -1.13900
O1443       O  0.37474573  0.84001534  0.29359686    -0.73100
C1444       C  0.35931211  0.85370570  0.27405663     0.97600
C1445       C  0.27296509  0.78150285  0.33201952     0.94000
Al1446     Al  0.32329506  0.79809970  0.35951361     1.55600
O1447       O  0.30985890  0.79473462  0.26457748    -0.77800
C1448       C  0.37606220  0.82049515  0.37157601     0.98200
C1449       C  0.29238603  0.85051088  0.35197725     0.93000
O1450       O  0.30174496  0.85388414  0.32419281    -0.83100
O1451       O  0.19594360  0.93534869  0.28121306    -0.82500
C1452       C  0.16793750  0.54178602  0.33572402     0.96800
O1453       O  0.15122478  0.52556011  0.32034539    -0.71600
O1454       O  0.16907621  0.50646102  0.26301134    -0.75200
Al1455     Al  0.15731598  0.99139073  0.29998183     1.49000
C1456       C  0.18863866  0.49778587  0.24462877     0.92100
O1457       O  0.24848974  0.99685783  0.30032926    -0.81500
O1458       O  0.20918982  0.95962103  0.36973347    -0.75000
Al1459     Al  0.21960444  0.96766995  0.29297281     1.90100
O1460       O  0.23844480  0.00489283  0.34982142    -0.74100
O1461       O  0.16434814  0.99197525  0.37241089    -0.73900
O1462       O  0.19188038  0.53300165  0.34501121    -0.79600
O1463       O  0.13821504  0.97338557  0.33485088    -0.77800
O1464       O  0.19238456  0.98530979  0.31587847    -1.13900
O1465       O  0.15424386  0.95586974  0.27793373    -0.73100
C1466       C  0.17013516  0.93476496  0.27218374     0.97600
C1467       C  0.25440774  0.50505551  0.32504552     0.94000
Al1468     Al  0.20023818  0.99685777  0.35574785     1.55600
O1469       O  0.21065170  0.98519361  0.25437190    -0.77800
C1470       C  0.14254104  0.97908946  0.36369627     0.98200
C1471       C  0.22693775  0.94349481  0.35618730     0.93000
O1472       O  0.23347995  0.94637485  0.32735301    -0.83100
C1473       C  0.28878965  0.89949621  0.37055374    -0.21000
C1474       C  0.27579486  0.87314309  0.36674940    -0.07600
C1475       C  0.24614749  0.87024336  0.37161037     0.13300
C1476       C  0.22947857  0.89481647  0.37485436    -0.21100
C1477       C  0.24224686  0.92153354  0.37343007    -0.07600
C1478       C  0.27223170  0.92380460  0.37471672     0.13300
C1479       C  0.28703634  0.95202051  0.37665277    -0.24400
H1480       H  0.31171517  0.90137693  0.36789748     0.14500
H1481       H  0.20644422  0.89324623  0.37396296     0.14600
C1482       C  0.23179903  0.84173487  0.36990237    -0.24400
H1483       H  0.30276082  0.95176831  0.39637566     0.04800
H1484       H  0.27176292  0.96947690  0.38158112     0.08000
H1485       H  0.29832882  0.95628470  0.35400272     0.08000
H1486       H  0.24093182  0.82747271  0.38821232     0.08000
H1487       H  0.23498800  0.83222064  0.34600971     0.08000
H1488       H  0.20849040  0.84346512  0.37417718     0.04800
C1489       C  0.19468005  0.76020227  0.33064802    -0.21000
C1490       C  0.18996331  0.75335774  0.36273487    -0.07600
C1491       C  0.21308568  0.75442949  0.38416650     0.13300
C1492       C  0.24013390  0.76245357  0.37295984    -0.21100
C1493       C  0.24460269  0.77010309  0.34100209    -0.07600
C1494       C  0.22140549  0.76904760  0.31965395     0.13300
C1495       C  0.22469199  0.77646050  0.28508904    -0.24400
H1496       H  0.17716971  0.75880798  0.31391431     0.14500
H1497       H  0.25776140  0.76358642  0.38957335     0.14600
C1498       C  0.20960336  0.74642546  0.41854048    -0.24400
H1499       H  0.20475467  0.77266315  0.27148819     0.04800
H1500       H  0.24174426  0.76313107  0.27442196     0.08000
H1501       H  0.23003128  0.79924401  0.28254745     0.08000
H1502       H  0.20131909  0.72443933  0.42022321     0.08000
H1503       H  0.19454536  0.76130663  0.43039099     0.08000
H1504       H  0.23015876  0.74735589  0.43161062     0.04800
C1505       C  0.14840948  0.57356790  0.37735899    -0.21000
C1506       C  0.15862923  0.57038259  0.34620714    -0.07600
C1507       C  0.16200713  0.59456397  0.32718226     0.13300
C1508       C  0.15432968  0.62141945  0.33944590    -0.21100
C1509       C  0.14321325  0.62475595  0.37044338    -0.07600
C1510       C  0.14049814  0.60031488  0.38969506     0.13300
C1511       C  0.12982045  0.60214695  0.42341696    -0.24400
H1512       H  0.14655248  0.55488812  0.39213015     0.14500
H1513       H  0.15629395  0.63981783  0.32429906     0.14600
C1514       C  0.17379381  0.59192117  0.29403200    -0.24400
H1515       H  0.13147288  0.58140153  0.43567888     0.04800
H1516       H  0.10703643  0.60852769  0.42373766     0.08000
H1517       H  0.14267549  0.61777353  0.43705636     0.08000
H1518       H  0.15983230  0.57794190  0.27953381     0.08000
H1519       H  0.19554853  0.58256610  0.29490076     0.08000
H1520       H  0.17513260  0.61286023  0.28216753     0.04800
C1521       C  0.01485095  0.67513435  0.33994011    -0.21000
C1522       C  0.04056857  0.66025576  0.34230025    -0.07600
C1523       C  0.04118860  0.63040843  0.34116974     0.13300
C1524       C  0.01555474  0.61598449  0.34429666    -0.21100
C1525       C  0.48723831  0.63113444  0.35330271    -0.07600
C1526       C  0.48637058  0.66097205  0.35252700     0.13300
C1527       C  0.45916641  0.67738406  0.35821974    -0.24400
H1528       H  0.01498714  0.69816160  0.34021788     0.14500
H1529       H  0.01559105  0.59311567  0.34717470     0.14600
C1530       C  0.06884378  0.61401639  0.34076381    -0.24400
H1531       H  0.46261378  0.70066472  0.35706560     0.04800
H1532       H  0.45066836  0.67245345  0.38213544     0.08000
H1533       H  0.44314751  0.67159870  0.33990233     0.08000
H1534       H  0.08113939  0.61855662  0.36267720     0.08000
H1535       H  0.08160137  0.62016997  0.31971276     0.08000
H1536       H  0.06519605  0.59075545  0.33956692     0.04800
C1537       C  0.37654686  0.67046717  0.34428900    -0.21000
C1538       C  0.38470375  0.66585510  0.37616983    -0.07600
C1539       C  0.38558034  0.68965766  0.39687998     0.13300
C1540       C  0.37811442  0.71684507  0.38537376    -0.21100
C1541       C  0.37045172  0.72146626  0.35336272    -0.07600
C1542       C  0.36976412  0.69774786  0.33262088     0.13300
C1543       C  0.36123003  0.70086243  0.29829879    -0.24400
H1544       H  0.37621041  0.65260906  0.32795585     0.14500
H1545       H  0.37854478  0.73480474  0.40157878     0.14600
C1546       C  0.39378481  0.68659644  0.43130536    -0.24400
H1547       H  0.36071284  0.68006502  0.28575831     0.04800
H1548       H  0.37678395  0.71451691  0.28579740     0.08000
H1549       H  0.33962770  0.71049064  0.29673624     0.08000
H1550       H  0.41640495  0.67987854  0.43328271     0.08000
H1551       H  0.37988304  0.67066590  0.44283205     0.08000
H1552       H  0.39143998  0.70692911  0.44453225     0.04800
C1553       C  0.28578037  0.53214491  0.36193001    -0.21000
C1554       C  0.28268118  0.51872152  0.33191477    -0.07600
C1555       C  0.30704368  0.51645506  0.31226322     0.13300
C1556       C  0.33359818  0.52640934  0.32368502    -0.21100
C1557       C  0.33670948  0.53760762  0.35468238    -0.07600
C1558       C  0.31226964  0.54114130  0.37360990     0.13300
C1559       C  0.31386199  0.55509072  0.40590660    -0.24400
H1560       H  0.26735436  0.53500028  0.37712392     0.14500
H1561       H  0.35221617  0.52478152  0.30858084     0.14600
C1562       C  0.30404232  0.01351338  0.27915988    -0.24400
H1563       H  0.29249202  0.55730471  0.41701099     0.04800
H1564       H  0.32313797  0.57663923  0.40369871     0.08000
H1565       H  0.32731839  0.54216703  0.42202973     0.08000
H1566       H  0.28686405  0.02645169  0.26819677     0.08000
H1567       H  0.29882402  0.99062773  0.27694208     0.08000
H1568       H  0.32398746  0.01725239  0.26563554     0.04800
C1569       C  0.37196957  0.90725130  0.20505097    -0.21000
C1570       C  0.40039758  0.91582256  0.20997122    -0.07600
C1571       C  0.41469082  0.90429128  0.23702193     0.13300
C1572       C  0.40060886  0.88487587  0.25732521    -0.21100
C1573       C  0.37227545  0.87613337  0.25229150    -0.07600
C1574       C  0.35788592  0.88779244  0.22537482     0.13300
C1575       C  0.32767206  0.87971973  0.21719972    -0.24400
H1576       H  0.36052938  0.91579335  0.18486108     0.14500
H1577       H  0.41207665  0.87633181  0.27749451     0.14600
C1578       C  0.44486373  0.91239093  0.24536331    -0.24400
H1579       H  0.32001145  0.89049133  0.19538546     0.04800
H1580       H  0.31315483  0.88599241  0.23686182     0.08000
H1581       H  0.32632095  0.85650779  0.21283817     0.08000
H1582       H  0.44624257  0.93566026  0.24930089     0.08000
H1583       H  0.45953806  0.90575024  0.22600090     0.08000
H1584       H  0.45231800  0.90193888  0.26746030     0.04800
C1585       C  0.46681204  0.53203515  0.29175977    -0.21000
C1586       C  0.44564674  0.51941049  0.31063243    -0.07600
C1587       C  0.42829181  0.49795226  0.29753277     0.13300
C1588       C  0.42322591  0.99440657  0.26221901    -0.21100
C1589       C  0.44817252  0.50822073  0.24538885    -0.07600
C1590       C  0.46830848  0.52666196  0.25909710     0.13300
C1591       C  0.48996798  0.54204614  0.23923844    -0.24400
H1592       H  0.48049835  0.54812906  0.30212922     0.14500
H1593       H  0.40637064  0.98236492  0.25084486     0.14600
C1594       C  0.39879347  0.98534506  0.31411627    -0.24400
H1595       H  0.50307258  0.55677530  0.25382117     0.04800
H1596       H  0.47898516  0.55462814  0.22062966     0.08000
H1597       H  0.50463089  0.52652188  0.22783057     0.08000
H1598       H  0.38633388  0.00212810  0.32626986     0.08000
H1599       H  0.40782722  0.97079910  0.33219552     0.08000
H1600       H  0.38393078  0.97301160  0.29885916     0.04800
C1601       C  0.21374196  0.51299887  0.19638881    -0.21000
C1602       C  0.18825752  0.50428144  0.21062240    -0.07600
C1603       C  0.16802818  0.99707792  0.19057415     0.13300
C1604       C  0.16663471  0.50033768  0.15836437    -0.21100
C1605       C  0.19113162  0.51176418  0.14456989    -0.07600
C1606       C  0.21540854  0.51700109  0.16356828     0.13300
C1607       C  0.24290737  0.52792734  0.14982843    -0.24400
H1608       H  0.23230766  0.51716150  0.21103990     0.14500
H1609       H  0.15143090  0.99553113  0.14289891     0.14600
C1610       C  0.14252223  0.98205536  0.20408289    -0.24400
H1611       H  0.26061853  0.51328722  0.15609777     0.04800
H1612       H  0.24753784  0.54930432  0.15976834     0.08000
H1613       H  0.24216556  0.52940763  0.12352984     0.08000
H1614       H  0.13117718  0.99611060  0.22116510     0.08000
H1615       H  0.14960414  0.96243861  0.21615233     0.08000
H1616       H  0.12713857  0.97578078  0.18526398     0.04800
C1617       C  0.03807070  0.52798693  0.08897747    -0.21000
C1618       C  0.03467991  0.51776089  0.12020279    -0.07600
C1619       C  0.05898688  0.51676983  0.14013769     0.13300
C1620       C  0.08557826  0.52593092  0.12839632    -0.21100
C1621       C  0.08903136  0.53538890  0.09689378    -0.07600
C1622       C  0.06475394  0.53658830  0.07707939     0.13300
C1623       C  0.06662027  0.54778316  0.04370230    -0.24400
H1624       H  0.01970407  0.52876564  0.07335530     0.14500
H1625       H  0.10399267  0.52539147  0.14395970     0.14600
C1626       C  0.05799178  0.00139842  0.16972973    -0.24400
H1627       H  0.04539089  0.54854832  0.03202782     0.04800
H1628       H  0.08060768  0.53383844  0.02912497     0.08000
H1629       H  0.07537242  0.56964860  0.04410287     0.08000
H1630       H  0.05182528  0.97870342  0.16855368     0.08000
H1631       H  0.04064014  0.51932139  0.18689829     0.08000
H1632       H  0.07891271  0.00258837  0.18201846     0.04800
C1633       C  0.16009930  0.87154772  0.21351325    -0.21000
C1634       C  0.13014718  0.86835478  0.21291642    -0.07600
C1635       C  0.11400707  0.88622513  0.23372614     0.13300
C1636       C  0.12786873  0.90662515  0.25308588    -0.21100
C1637       C  0.15769493  0.91004086  0.25341489    -0.07600
C1638       C  0.17395346  0.89181223  0.23332943     0.13300
C1639       C  0.20593959  0.89401755  0.23185760    -0.24400
H1640       H  0.17295903  0.85801551  0.19829561     0.14500
H1641       H  0.11504240  0.92029777  0.26820379     0.14600
C1642       C  0.08197217  0.88438671  0.23596498    -0.24400
H1643       H  0.21525511  0.87869536  0.21456602     0.04800
H1644       H  0.21523184  0.88934450  0.25552968     0.08000
H1645       H  0.21211941  0.91570466  0.22440281     0.08000
H1646       H  0.07570622  0.86309505  0.24463335     0.08000
H1647       H  0.07224942  0.88849934  0.21236934     0.08000
H1648       H  0.07301385  0.90025573  0.25287359     0.04800
C1649       C  0.06016911  0.76499360  0.29630480    -0.21000
C1650       C  0.08335820  0.77478022  0.31428671    -0.07600
C1651       C  0.10432624  0.79159332  0.29981107     0.13300
C1652       C  0.10443836  0.79374589  0.26673444    -0.21100
C1653       C  0.08344368  0.78034130  0.24819674    -0.07600
C1654       C  0.05989249  0.76757802  0.26325317     0.13300
C1655       C  0.03531554  0.75525531  0.24480358    -0.24400
H1656       H  0.04387891  0.75244786  0.30784155     0.14500
H1657       H  0.12126240  0.80561609  0.25526700     0.14600
C1658       C  0.12748177  0.80576539  0.31892534    -0.24400
H1659       H  0.01990273  0.74431161  0.26051507     0.04800
H1660       H  0.04327685  0.73960355  0.22705667     0.08000
H1661       H  0.02359958  0.77257037  0.23268004     0.08000
H1662       H  0.14024512  0.78976931  0.33185696     0.08000
H1663       H  0.11771158  0.82064429  0.33636620     0.08000
H1664       H  0.14221387  0.81801588  0.30361926     0.04800
C1665       C  0.00851442  0.86624210  0.09185111    -0.21000
C1666       C  0.03699948  0.87131478  0.10011482    -0.07600
C1667       C  0.04756207  0.89916835  0.10226884     0.13300
C1668       C  0.02852008  0.92161223  0.09899182    -0.21100
C1669       C  0.49776471  0.91452035  0.09677829    -0.07600
C1670       C  0.48844921  0.88646559  0.09279726     0.13300
C1671       C  0.45720651  0.87926410  0.09152363    -0.24400
H1672       H  0.50203168  0.84298064  0.09102174     0.14500
H1673       H  0.03586404  0.94316509  0.10295602     0.14600
C1674       C  0.07827629  0.90523125  0.11014380    -0.24400
H1675       H  0.45380056  0.85611598  0.08818566     0.04800
H1676       H  0.44707075  0.89050664  0.07133809     0.08000
H1677       H  0.44657874  0.88580246  0.11397049     0.08000
H1678       H  0.09211046  0.89451691  0.09254298     0.08000
H1679       H  0.08361643  0.89744174  0.13424690     0.08000
H1680       H  0.08293140  0.92832235  0.10957416     0.04800
C1681       C  0.13140700  0.71131843  0.07603342    -0.21000
C1682       C  0.12409718  0.71519769  0.10835587    -0.07600
C1683       C  0.12503710  0.69135434  0.12855122     0.13300
C1684       C  0.13323014  0.66471126  0.11611998    -0.21100
C1685       C  0.14117203  0.66094075  0.08404169    -0.07600
C1686       C  0.14023540  0.68471507  0.06377770     0.13300
C1687       C  0.14780257  0.68205308  0.02911884    -0.24400
H1688       H  0.13057465  0.72936567  0.06023048     0.14500
H1689       H  0.13417615  0.64670608  0.13198119     0.14600
C1690       C  0.11683955  0.69355909  0.16309133    -0.24400
H1691       H  0.14415784  0.70224164  0.01625454     0.04800
H1692       H  0.13441659  0.66546771  0.01775523     0.08000
H1693       H  0.17064749  0.67632314  0.02649654     0.08000
H1694       H  0.09482956  0.70212124  0.16526256     0.08000
H1695       H  0.13192015  0.70768866  0.17585681     0.08000
H1696       H  0.11745864  0.67257834  0.17495972     0.04800
C1697       C  0.35151577  0.79915313  0.19677492    -0.21000
C1698       C  0.33184255  0.78450560  0.21569216    -0.07600
C1699       C  0.31109597  0.76717363  0.20125603     0.13300
C1700       C  0.31215412  0.76300930  0.16841230    -0.21100
C1701       C  0.33409633  0.77480882  0.15004055    -0.07600
C1702       C  0.35290955  0.79452619  0.16395945     0.13300
C1703       C  0.37564336  0.80913922  0.14487214    -0.24400
H1704       H  0.36643012  0.81368869  0.20789874     0.14500
H1705       H  0.29765178  0.74796124  0.15745185     0.14600
C1706       C  0.28919495  0.75146242  0.22043451    -0.24400
H1707       H  0.38817436  0.82419787  0.15966717     0.04800
H1708       H  0.36557456  0.82131194  0.12531564     0.08000
H1709       H  0.39067455  0.79327025  0.13475035     0.08000
H1710       H  0.27455718  0.76686042  0.23199462     0.08000
H1711       H  0.29993733  0.73834816  0.23876862     0.08000
H1712       H  0.27608438  0.73714868  0.20534908     0.04800
C1713       C  0.26538821  0.67071181  0.11702931    -0.21000
C1714       C  0.29215201  0.65793346  0.11377358    -0.07600
C1715       C  0.29478600  0.62809867  0.11359670     0.13300
C1716       C  0.27015278  0.61180352  0.11082216    -0.21100
C1717       C  0.24350080  0.62499541  0.10896315    -0.07600
C1718       C  0.24071698  0.65440547  0.11478638     0.13300
C1719       C  0.21211936  0.66905641  0.11505708    -0.24400
H1720       H  0.26377932  0.69368179  0.11766765     0.14500
H1721       H  0.27180356  0.58902885  0.10729089     0.14600
C1722       C  0.32338146  0.61355255  0.11312305    -0.24400
H1723       H  0.21408686  0.69213927  0.12005473     0.04800
H1724       H  0.19839989  0.65975425  0.13374426     0.08000
H1725       H  0.20179422  0.66658302  0.09153053     0.08000
H1726       H  0.33576290  0.61999661  0.13439821     0.08000
H1727       H  0.33505113  0.61931268  0.09128691     0.08000
H1728       H  0.32132092  0.59007756  0.11340972     0.04800
C1729       C  0.49235283  0.76469580  0.08671096    -0.21000
C1730       C  0.49830037  0.77115519  0.11876190    -0.07600
C1731       C  0.47600863  0.76889283  0.14117437     0.13300
C1732       C  0.44863474  0.76063040  0.13108184    -0.21100
C1733       C  0.44248516  0.75468719  0.09898051    -0.07600
C1734       C  0.46484882  0.75662719  0.07652237     0.13300
C1735       C  0.46018023  0.74941710  0.04199182    -0.24400
H1736       H  0.50929229  0.76643753  0.06933661     0.14500
H1737       H  0.43180651  0.75877495  0.14857602     0.14600
C1738       C  0.48125066  0.77360154  0.17603148    -0.24400
H1739       H  0.48025120  0.75075114  0.02810709     0.04800
H1740       H  0.44468655  0.76449389  0.03138839     0.08000
H1741       H  0.45196104  0.72742607  0.03971871     0.08000
H1742       H  0.98498113  0.79624919  0.18107461     0.08000
H1743       H  0.99625332  0.75974667  0.18700670     0.08000
H1744       H  0.46189888  0.76948527  0.19044977     0.04800
C1745       C  0.40626316  0.59189361  0.13010638    -0.21000
C1746       C  0.41025542  0.57077083  0.10693136    -0.07600
C1747       C  0.40760712  0.57864502  0.07430153     0.13300
C1748       C  0.39913316  0.60647599  0.06632586    -0.21100
C1749       C  0.39512148  0.62747499  0.08955326    -0.07600
C1750       C  0.39957732  0.62012257  0.12196289     0.13300
C1751       C  0.39668528  0.64156279  0.14851907    -0.24400
H1752       H  0.40889581  0.58638321  0.15490637     0.14500
H1753       H  0.39599871  0.61206357  0.04161320     0.14600
C1754       C  0.41365425  0.55821679  0.04733986    -0.24400
H1755       H  0.40056040  0.63192716  0.17215718     0.04800
H1756       H  0.37487335  0.65059713  0.14884602     0.08000
H1757       H  0.41253151  0.65874854  0.14547417     0.08000
H1758       H  0.39992292  0.53923498  0.04915754     0.08000
H1759       H  0.43644107  0.55177967  0.04775323     0.08000
H1760       H  0.40955669  0.56793547  0.02378857     0.04800
C1761       C  0.36992551  0.73733777  0.91095557    -0.21000
C1762       C  0.37998845  0.71206941  0.89749105    -0.07600
C1763       C  0.38329755  0.68784434  0.91641156     0.13300
C1764       C  0.38070488  0.69050946  0.94930272    -0.21100
C1765       C  0.37450424  0.71690050  0.96360368    -0.07600
C1766       C  0.36752361  0.74037635  0.94391055     0.13300
C1767       C  0.35835772  0.76893663  0.95683081    -0.24400
H1768       H  0.36731874  0.75580911  0.89593459     0.14500
H1769       H  0.38435685  0.67194760  0.96386547     0.14600
C1770       C  0.39070293  0.65953008  0.90171262    -0.24400
H1771       H  0.35328144  0.78415064  0.93755799     0.04800
H1772       H  0.37574565  0.77833601  0.97131045     0.08000
H1773       H  0.33884592  0.76668392  0.97139156     0.08000
H1774       H  0.41122310  0.66076898  0.88883529     0.08000
H1775       H  0.37374122  0.65332099  0.88465876     0.08000
H1776       H  0.39261636  0.64263582  0.91988808     0.04800
C1777       C  0.14362318  0.59196591  0.90710219    -0.21000
C1778       C  0.15512180  0.56861361  0.89065713    -0.07600
C1779       C  0.17195645  0.54883322  0.90716864    -0.01100
C1780       C  0.17275182  0.54997282  0.94037300    -0.21100
C1781       C  0.15796721  0.57120953  0.95729952    -0.07600
C1782       C  0.14481732  0.59358664  0.94038040     0.13300
C1783       C  0.13036834  0.61809681  0.95709051    -0.24400
H1784       H  0.13056387  0.60705374  0.89421127     0.14500
H1785       H  0.18463801  0.53391400  0.95318120     0.14600
C1786       C  0.18746364  0.52544974  0.88964335    -0.24400
H1787       H  0.11953453  0.63248529  0.94006034     0.04800
H1788       H  0.14637318  0.63086895  0.97023420     0.08000
H1789       H  0.11409304  0.61003225  0.97387299     0.08000
H1790       H  0.20280420  0.53492581  0.87271028     0.08000
H1791       H  0.17221270  0.51202470  0.87619483     0.08000
H1792       H  0.19957674  0.51157765  0.90614304     0.04800
C1793       C  0.03181150  0.66657199  0.86159259    -0.21000
C1794       C  0.50570621  0.66503496  0.86896256    -0.07600
C1795       C  0.49829009  0.64020609  0.88527235     0.13300
C1796       C  0.01501273  0.61378838  0.88435259    -0.21100
C1797       C  0.04313053  0.61795640  0.87415917    -0.07600
C1798       C  0.05218916  0.64517331  0.86517778     0.13300
C1799       C  0.08275058  0.65059456  0.85607049    -0.24400
H1800       H  0.03811252  0.68702465  0.85227782     0.14500
H1801       H  0.51319301  0.59892032  0.89943893     0.14600
C1802       C  0.46810160  0.63496203  0.89556378    -0.24400
H1803       H  0.08613874  0.67306338  0.84923418     0.04800
H1804       H  0.08899829  0.63696690  0.83560257     0.08000
H1805       H  0.09683351  0.64580460  0.87655693     0.08000
H1806       H  0.45393522  0.63464077  0.87443578     0.08000
H1807       H  0.46114683  0.65210744  0.91206439     0.08000
H1808       H  0.46596392  0.61432766  0.90794185     0.04800
C1809       C  0.24778417  0.79102463  0.99195225    -0.21000
C1810       C  0.24380694  0.78014264  0.96091033    -0.07600
C1811       C  0.26091549  0.75648779  0.95177806     0.13300
C1812       C  0.28081418  0.74460497  0.97346620    -0.21100
C1813       C  0.28479754  0.75546286  0.00449778    -0.07600
C1814       C  0.26773776  0.77915321  0.01363440     0.13300
C1815       C  0.26968528  0.79160434  0.04660737    -0.24400
H1816       H  0.23465152  0.80874404  0.99967700     0.14500
H1817       H  0.29391153  0.72685716  0.96574328     0.14600
C1818       C  0.25905666  0.74402273  0.91879854    -0.24400
H1819       H  0.25363326  0.80867256  0.05047269     0.04800
H1820       H  0.29105304  0.80102584  0.05045764     0.08000
H1821       H  0.26583557  0.77480584  0.06447664     0.08000
H1822       H  0.26278377  0.76084254  0.90091935     0.08000
H1823       H  0.23777172  0.73442082  0.91495362     0.08000
H1824       H  0.27523059  0.72707104  0.91492453     0.04800
C1825       C  0.15152028  0.84145787  0.01691449    -0.21000
C1826       C  0.15573355  0.81553455  0.00090325    -0.07600
C1827       C  0.16262613  0.79096168  0.01903381     0.13300
C1828       C  0.16167744  0.79260771  0.05221000    -0.21100
C1829       C  0.15292103  0.81748628  0.06751760    -0.07600
C1830       C  0.15014731  0.84267231  0.04999760     0.13300
C1831       C  0.14402914  0.87076428  0.06566350    -0.24400
H1832       H  0.14821956  0.86085431  0.00364845     0.14500
H1833       H  0.16406753  0.77337547  0.06603976     0.14600
C1834       C  0.17014478  0.76260027  0.00433693    -0.24400
H1835       H  0.16151998  0.88578619  0.06026349     0.04800
H1836       H  0.14230704  0.86895502  0.09188226     0.08000
H1837       H  0.12384540  0.87947936  0.05600551     0.08000
H1838       H  0.18926887  0.76463151  0.98911469     0.08000
H1839       H  0.15189807  0.75447308  0.99021618     0.08000
H1840       H  0.17523573  0.74641344  0.02258363     0.04800
C1841       C  0.06877439  0.77084024  0.88323205    -0.21000
C1842       C  0.08868898  0.77832364  0.85992518    -0.07600
C1843       C  0.08025057  0.77617577  0.82734728     0.13300
C1844       C  0.05302926  0.76566395  0.81939732    -0.21100
C1845       C  0.03311330  0.75878314  0.84277787    -0.07600
C1846       C  0.04112788  0.76163651  0.87522289     0.13300
C1847       C  0.02102606  0.75422807  0.90180582    -0.24400
H1848       H  0.07472476  0.77258921  0.90804985     0.14500
H1849       H  0.04691509  0.76349820  0.79465419     0.14600
C1850       C  0.09939488  0.78498524  0.80042999    -0.24400
H1851       H  0.03110465  0.75698458  0.92550462     0.04800
H1852       H  0.01451904  0.73171892  0.89959381     0.08000
H1853       H  0.49963100  0.79630650  0.88617212     0.08000
H1854       H  0.11976155  0.77319904  0.80158731     0.08000
H1855       H  0.10348048  0.80814476  0.80181275     0.08000
H1856       H  0.08971988  0.78057250  0.77682605     0.04800
C1857       C  0.11955907  0.93970002  0.83000745    -0.21000
C1858       C  0.11273993  0.96066880  0.85234556    -0.07600
C1859       C  0.11517292  0.95408221  0.88514704     0.13300
C1860       C  0.12549803  0.92714353  0.89454630    -0.21100
C1861       C  0.13211625  0.90593171  0.87213665    -0.07600
C1862       C  0.12841437  0.91235722  0.83926185     0.13300
C1863       C  0.13438723  0.89094386  0.81330601    -0.24400
H1864       H  0.11760368  0.94472275  0.80497873     0.14500
H1865       H  0.12816209  0.92251475  0.91959692     0.14600
C1866       C  0.10754169  0.97562213  0.91036635    -0.24400
H1867       H  0.15684281  0.88374899  0.81447378     0.04800
H1868       H  0.13096835  0.89998793  0.78928696     0.08000
H1869       H  0.11983830  0.87256689  0.81555835     0.08000
H1870       H  0.08466264  0.98143188  0.90838267     0.08000
H1871       H  0.12076105  0.99489636  0.90760935     0.08000
H1872       H  0.11117489  0.96723526  0.93464845     0.04800
C1873       C  0.28056251  0.99168029  0.98588639    -0.21000
C1874       C  0.28525605  0.49797895  0.95737574    -0.07600
C1875       C  0.26954229  0.52220509  0.94725211     0.13300
C1876       C  0.24971097  0.53561473  0.96802785    -0.21100
C1877       C  0.24443362  0.52579357  0.99907324    -0.07600
C1878       C  0.25990992  0.50141399  0.00912393     0.13300
C1879       C  0.25784571  0.99262796  0.04002241    -0.24400
H1880       H  0.29281220  0.97353692  0.99391116     0.14500
H1881       H  0.23786207  0.55389099  0.95965648     0.14600
C1882       C  0.27291085  0.53386009  0.91421238    -0.24400
H1883       H  0.27330368  0.97514810  0.04434101     0.04800
H1884       H  0.23447676  0.48175157  0.04546043     0.08000
H1885       H  0.26194350  0.00957237  0.05788858     0.08000
H1886       H  0.26888901  0.51685684  0.89639798     0.08000
H1887       H  0.29471549  0.54242250  0.91106833     0.08000
H1888       H  0.25765278  0.55143277  0.90952133     0.04800
C1889       C  0.36029764  0.97969343  0.01383171    -0.21000
C1890       C  0.37539989  0.95977543  0.99524409    -0.07600
C1891       C  0.39023220  0.93746572  0.01040479     0.13300
C1892       C  0.39249330  0.93782831  0.04348934    -0.21100
C1893       C  0.38111289  0.96029071  0.06159720    -0.07600
C1894       C  0.36245834  0.97976037  0.04707011     0.13300
C1895       C  0.34556469  0.00095450  0.06639128    -0.24400
H1896       H  0.34687770  0.99534316  0.00230324     0.14500
H1897       H  0.40618296  0.92241142  0.05503187     0.14600
C1898       C  0.40523101  0.91423102  0.99204280    -0.24400
H1899       H  0.33161883  0.01423204  0.05110714     0.04800
H1900       H  0.35987752  0.01530151  0.07986473     0.08000
H1901       H  0.33177257  0.98946783  0.08340850     0.08000
H1902       H  0.42012879  0.92361150  0.97455321     0.08000
H1903       H  0.38933420  0.90082190  0.97960600     0.08000
H1904       H  0.41775637  0.90008616  0.00785814     0.04800
C1905       C  0.26126395  0.92038911  0.84637992    -0.21000
C1906       C  0.28738846  0.90600598  0.84606525    -0.07600
C1907       C  0.28846769  0.87623306  0.84282869     0.13300
C1908       C  0.26310783  0.86111546  0.84512303    -0.21100
C1909       C  0.23749927  0.87548880  0.85072365    -0.07600
C1910       C  0.23597223  0.90528291  0.84911596     0.13300
C1911       C  0.20829312  0.92114900  0.85364746    -0.24400
H1912       H  0.26093936  0.94334055  0.84851509     0.14500
H1913       H  0.26361800  0.83812503  0.84599438     0.14600
C1914       C  0.31632691  0.86026844  0.84106016    -0.24400
H1915       H  0.21127697  0.94448793  0.85233693     0.04800
H1916       H  0.19909448  0.91624699  0.87724757     0.08000
H1917       H  0.19306777  0.91489638  0.83475260     0.08000
H1918       H  0.32862714  0.86372945  0.86321837     0.08000
H1919       H  0.32888865  0.86773569  0.82041630     0.08000
H1920       H  0.31300429  0.83706039  0.83825379     0.04800
C1921       C  0.44454152  0.52684038  0.85930325    -0.21000
C1922       C  0.44005663  0.99961935  0.85723317    -0.07600
C1923       C  0.45514741  0.99121258  0.82922066     0.13300
C1924       C  0.48109141  0.00460842  0.82133474    -0.21100
C1925       C  0.49224067  0.52221330  0.83640795    -0.07600
C1926       C  0.46895442  0.53939984  0.84586332     0.13300
C1927       C  0.47003685  0.57108355  0.84198275    -0.24400
H1928       H  0.42685679  0.54019092  0.86671425     0.14500
H1929       H  0.00725174  0.97947776  0.83709680     0.14600
C1930       C  0.44465858  0.96787646  0.80756995    -0.24400
H1931       H  0.45027323  0.58157122  0.85071949     0.04800
H1932       H  0.47270914  0.57631263  0.81648013     0.08000
H1933       H  0.48832265  0.57971949  0.85545208     0.08000
H1934       H  0.42400160  0.97409881  0.79672003     0.08000
H1935       H  0.44219982  0.94791595  0.82116956     0.08000
H1936       H  0.45976662  0.96352756  0.78780665     0.04800
C1937       C  0.39806841  0.81788010  0.88170625    -0.21000
C1938       C  0.40569925  0.81278766  0.84972151    -0.07600
C1939       C  0.40512266  0.83590357  0.82845198     0.13300
C1940       C  0.39760981  0.86321196  0.83975364    -0.21100
C1941       C  0.38972940  0.86820724  0.87165808    -0.07600
C1942       C  0.38966700  0.84497757  0.89275069     0.13300
C1943       C  0.38148024  0.84865408  0.92712528    -0.24400
H1944       H  0.39842387  0.80038372  0.89827620     0.14500
H1945       H  0.39713111  0.88073318  0.82321020     0.14600
C1946       C  0.41289774  0.83214990  0.79396828    -0.24400
H1947       H  0.38435453  0.82872408  0.94070408     0.04800
H1948       H  0.35872665  0.85494876  0.92904726     0.08000
H1949       H  0.39509932  0.86513651  0.93826314     0.08000
H1950       H  0.39757270  0.81755274  0.78226295     0.08000
H1951       H  0.43480987  0.82332389  0.79193720     0.08000
H1952       H  0.41225176  0.85259380  0.78098681     0.04800
C1953       C  0.40440564  0.62207097  0.70872745    -0.21000
C1954       C  0.37565709  0.61449595  0.71324897    -0.07600
C1955       C  0.36129265  0.62714411  0.73972315     0.13300
C1956       C  0.37560598  0.64685822  0.75973931    -0.21100
C1957       C  0.40425655  0.65467034  0.75498090    -0.07600
C1958       C  0.41873632  0.64171631  0.72880021     0.13300
C1959       C  0.44928176  0.64870137  0.72105806    -0.24400
H1960       H  0.41593312  0.61259416  0.68902733     0.14500
H1961       H  0.36408707  0.65638647  0.77942179     0.14600
C1962       C  0.33083001  0.61998078  0.74767522    -0.24400
H1963       H  0.45699344  0.63697997  0.69974798     0.04800
H1964       H  0.46331469  0.64272286  0.74120776     0.08000
H1965       H  0.45130218  0.67171877  0.71605153     0.08000
H1966       H  0.32890246  0.59689511  0.75230619     0.08000
H1967       H  0.31659482  0.62620449  0.72780198     0.08000
H1968       H  0.32328549  0.63137957  0.76927764     0.04800
C1969       C  0.39313141  0.59303735  0.51533492    -0.21000
C1970       C  0.39972235  0.56799304  0.49849736    -0.07600
C1971       C  0.40774166  0.54335671  0.51591213     0.13300
C1972       C  0.40687614  0.54415799  0.54916971    -0.21100
C1973       C  0.39644764  0.56795763  0.56531277    -0.07600
C1974       C  0.39130850  0.59324521  0.54850675     0.13300
C1975       C  0.38268166  0.62011468  0.56569515    -0.24400
H1976       H  0.38848284  0.61239045  0.50251751     0.14500
H1977       H  0.41102752  0.52494562  0.56248268     0.14600
C1978       C  0.41652518  0.51576647  0.50026533    -0.24400
H1979       H  0.38020441  0.63818563  0.54908582     0.04800
H1980       H  0.39931591  0.62577269  0.58338109     0.08000
H1981       H  0.36206764  0.61728554  0.57813893     0.08000
H1982       H  0.43562712  0.51902180  0.48535973     0.08000
H1983       H  0.39872406  0.50735916  0.48563805     0.08000
H1984       H  0.42211527  0.49921839  0.51791718     0.04800
C1985       C  0.35275605  0.53654371  0.76518068    -0.21000
C1986       C  0.33192006  0.52318945  0.74645345    -0.07600
C1987       C  0.31103308  0.50618799  0.76093774     0.13300
C1988       C  0.31343143  0.50061310  0.79348094    -0.21100
C1989       C  0.33613517  0.51166269  0.81149395    -0.07600
C1990       C  0.35377972  0.03609367  0.79461029     0.13300
C1991       C  0.37746448  0.04950632  0.81360174    -0.24400
H1992       H  0.36795791  0.55068279  0.75411909     0.14500
H1993       H  0.29897784  0.48563198  0.80439521     0.14600
C1994       C  0.28751121  0.49243022  0.74200246    -0.24400
H1995       H  0.39028637  0.06429073  0.79899922     0.04800
H1996       H  0.39205166  0.03287251  0.82279080     0.08000
H1997       H  0.36831076  0.06175191  0.83379811     0.08000
H1998       H  0.29678080  0.47919929  0.72265552     0.08000
H1999       H  0.27344966  0.50895423  0.73162594     0.08000
H2000       H  0.27406453  0.47856220  0.75703135     0.04800
C2001       C  0.12033751  0.66230151  0.71594182    -0.21000
C2002       C  0.14948975  0.66088368  0.70767754    -0.07600
C2003       C  0.16567386  0.63813549  0.72070001     0.13300
C2004       C  0.15262353  0.61820690  0.74119064    -0.21100
C2005       C  0.12363316  0.61995900  0.75016335    -0.07600
C2006       C  0.10738759  0.64264679  0.73698019     0.13300
C2007       C  0.07625626  0.64649471  0.74471798    -0.24400
H2008       H  0.10761315  0.67957047  0.70655560     0.14500
H2009       H  0.16549758  0.60100487  0.75046113     0.14600
C2010       C  0.19678209  0.63414899  0.71275766    -0.24400
H2011       H  0.06690656  0.66514269  0.73243827     0.04800
H2012       H  0.07356258  0.64994869  0.77066442     0.08000
H2013       H  0.06413725  0.62746003  0.73703441     0.08000
H2014       H  0.20943833  0.65195231  0.72269750     0.08000
H2015       H  0.19959444  0.63304544  0.68658139     0.08000
H2016       H  0.20554287  0.61424963  0.72295323     0.04800
C2017       C  0.11800353  0.73439402  0.55014799    -0.21000
C2018       C  0.13121375  0.71081344  0.56364592    -0.07600
C2019       C  0.13809971  0.68706227  0.54459559     0.13300
C2020       C  0.13433820  0.68866096  0.51175141    -0.21100
C2021       C  0.12443570  0.71373501  0.49757251    -0.07600
C2022       C  0.11538632  0.73674990  0.51725523     0.13300
C2023       C  0.10362739  0.76428545  0.50443267    -0.24400
H2024       H  0.11307114  0.75259607  0.56509039     0.14500
H2025       H  0.14019336  0.67054580  0.49712423     0.14600
C2026       C  0.15090024  0.66044585  0.55834073    -0.24400
H2027       H  0.09719002  0.77918366  0.52370399     0.04800
H2028       H  0.08442829  0.76020239  0.48989581     0.08000
H2029       H  0.12007040  0.77512222  0.49001675     0.08000
H2030       H  0.15232477  0.66141295  0.58465397     0.08000
H2031       H  0.17264919  0.65709942  0.54857718     0.08000
H2032       H  0.13742134  0.64196596  0.55190302     0.04800
C2033       C  0.17140306  0.74495854  0.80199842    -0.21000
C2034       C  0.19469453  0.75937153  0.81479436    -0.07600
C2035       C  0.21741050  0.76738370  0.79493683     0.13300
C2036       C  0.21456015  0.76414817  0.76211703    -0.21100
C2037       C  0.18938137  0.75328234  0.74875790    -0.07600
C2038       C  0.16779118  0.74277539  0.76911960     0.13300
C2039       C  0.14067553  0.72964171  0.75683780    -0.24400
H2040       H  0.15420990  0.73860772  0.81761679     0.14500
H2041       H  0.23185835  0.77088792  0.74686428     0.14600
C2042       C  0.24418486  0.78068778  0.80792122    -0.24400
H2043       H  0.12665791  0.72227024  0.77635911     0.04800
H2044       H  0.14594027  0.71099294  0.74199396     0.08000
H2045       H  0.12839161  0.74537676  0.74281289     0.08000
H2046       H  0.24425934  0.78149681  0.83429158     0.08000
H2047       H  0.24628187  0.80262637  0.79875200     0.08000
H2048       H  0.26297869  0.76799967  0.80023894     0.04800
C2049       C  0.23512932  0.64060336  0.59456870    -0.21000
C2050       C  0.24835281  0.66680387  0.59849807    -0.07600
C2051       C  0.27826935  0.66911647  0.59717602     0.13300
C2052       C  0.29451609  0.64426323  0.59817268    -0.21100
C2053       C  0.28101044  0.61788420  0.59936425    -0.07600
C2054       C  0.25130436  0.61581273  0.59468744     0.13300
C2055       C  0.23625705  0.58772266  0.59301017    -0.24400
H2056       H  0.21204743  0.63943481  0.59471617     0.14500
H2057       H  0.31745934  0.64545735  0.60088878     0.14600
C2058       C  0.29293426  0.69749443  0.59783970    -0.24400
H2059       H  0.21289155  0.59033472  0.58979085     0.04800
H2060       H  0.23976220  0.57580793  0.61526852     0.08000
H2061       H  0.24443411  0.57545593  0.57242819     0.08000
H2062       H  0.28797607  0.70873228  0.62036544     0.08000
H2063       H  0.28559173  0.71045932  0.57743857     0.08000
H2064       H  0.31646393  0.69521957  0.59615789     0.04800
C2065       C  0.49304648  0.74844473  0.49999241    -0.21000
C2066       C  0.49024580  0.77816773  0.50294305    -0.07600
C2067       C  0.99869801  0.78889396  0.47070677     0.13300
C2068       C  0.01938527  0.77578307  0.45082706    -0.21100
C2069       C  0.03256096  0.74985803  0.45857722    -0.07600
C2070       C  0.02433660  0.73692914  0.48776572     0.13300
C2071       C  0.03758132  0.70951632  0.49893697    -0.24400
H2072       H  0.47916831  0.73513793  0.51402501     0.14500
H2073       H  0.02534951  0.78601225  0.42884873     0.14600
C2074       C  0.98549066  0.81630934  0.45953710    -0.24400
H2075       H  0.02947580  0.70317191  0.52262646     0.04800
H2076       H  0.06101238  0.71186769  0.50100458     0.08000
H2077       H  0.03246617  0.69211123  0.48202247     0.08000
H2078       H  0.99081057  0.83374965  0.47632164     0.08000
H2079       H  0.48700347  0.83495194  0.47627405     0.08000
H2080       H  0.99345091  0.82253191  0.43574548     0.04800
C2081       C  0.38839107  0.84374357  0.45332985    -0.21000
C2082       C  0.39793975  0.81789872  0.46605013    -0.07600
C2083       C  0.40735908  0.79602261  0.44509793     0.13300
C2084       C  0.40542846  0.80021302  0.41230246    -0.21100
C2085       C  0.39305468  0.82484602  0.40004070    -0.07600
C2086       C  0.38592669  0.84748618  0.42062755     0.13300
C2087       C  0.37385056  0.87509965  0.40857493    -0.24400
H2088       H  0.38215611  0.86105203  0.46898966     0.14500
H2089       H  0.41038917  0.78274862  0.39627409     0.14600
C2090       C  0.41888717  0.76796068  0.45655797    -0.24400
H2091       H  0.38714358  0.89298434  0.41726011     0.04800
H2092       H  0.35172999  0.87796336  0.41746573     0.08000
H2093       H  0.37352648  0.87594169  0.38222661     0.08000
H2094       H  0.40237054  0.75671260  0.47045941     0.08000
H2095       H  0.43806885  0.77147051  0.47131017     0.08000
H2096       H  0.42523451  0.75378438  0.43657236     0.04800
C2097       C  0.46652885  0.76493068  0.66690104    -0.21000
C2098       C  0.44218548  0.75681340  0.64968089    -0.07600
C2099       C  0.42163564  0.73937871  0.66408973     0.13300
C2100       C  0.42409252  0.73364123  0.69650802    -0.21100
C2101       C  0.44672508  0.74462628  0.71464857    -0.07600
C2102       C  0.46922721  0.75883060  0.69929511     0.13300
C2103       C  0.49513385  0.76912838  0.71707664    -0.24400
H2104       H  0.48232595  0.77819509  0.65553116     0.14500
H2105       H  0.40768694  0.72121681  0.70800835     0.14600
C2106       C  0.39606820  0.72853950  0.64608870    -0.24400
H2107       H  0.50982993  0.78105077  0.70141584     0.04800
H2108       H  0.50716491  0.75075796  0.72671451     0.08000
H2109       H  0.48855683  0.78343020  0.73683406     0.08000
H2110       H  0.40324835  0.71538508  0.62562291     0.08000
H2111       H  0.38312423  0.74655077  0.63729585     0.08000
H2112       H  0.38212703  0.71526069  0.66123075     0.04800
C2113       C  0.32851600  0.77849173  0.63648519    -0.21000
C2114       C  0.33417907  0.78296056  0.60396288    -0.07600
C2115       C  0.31125520  0.78162657  0.58220143     0.13300
C2116       C  0.28374908  0.77522920  0.59332118    -0.21100
C2117       C  0.27842872  0.76939484  0.62555270    -0.07600
C2118       C  0.30115919  0.77128781  0.64745082     0.13300
C2119       C  0.29669376  0.76621481  0.68242456    -0.24400
H2120       H  0.34576479  0.78013502  0.65350836     0.14500
H2121       H  0.26643579  0.77357163  0.57636863     0.14600
C2122       C  0.31538633  0.78737328  0.54733374    -0.24400
H2123       H  0.31635518  0.77044228  0.69636047     0.04800
H2124       H  0.29069626  0.74379507  0.68655106     0.08000
H2125       H  0.27960093  0.78046328  0.69152758     0.08000
H2126       H  0.32967726  0.77105045  0.53675312     0.08000
H2127       H  0.32477920  0.80876013  0.54411373     0.08000
H2128       H  0.29490841  0.78671928  0.53409290     0.04800
C2129       C  0.36498526  0.94279549  0.62819766    -0.21000
C2130       C  0.36763591  0.96433439  0.60559799    -0.07600
C2131       C  0.37709925  0.95686079  0.57456608     0.13300
C2132       C  0.38479967  0.92856759  0.56761328    -0.21100
C2133       C  0.38248251  0.90699217  0.59030037    -0.07600
C2134       C  0.37183842  0.91430881  0.62098474     0.13300
C2135       C  0.36842345  0.89261648  0.64687348    -0.24400
H2136       H  0.35724137  0.94829702  0.65171276     0.14500
H2137       H  0.39294306  0.92327592  0.54421000     0.14600
C2138       C  0.38022958  0.97866710  0.54879383    -0.24400
H2139       H  0.36028321  0.90227538  0.66924776     0.04800
H2140       H  0.38934004  0.88265981  0.65226000     0.08000
H2141       H  0.35289021  0.87617722  0.63935621     0.08000
H2142       H  0.37610728  0.49087961  0.54924932     0.08000
H2143       H  0.33945934  0.47869138  0.54927612     0.08000
H2144       H  0.38961047  0.96946411  0.52678740     0.04800
C2145       C  0.00118309  0.50610501  0.45394081    -0.21000
C2146       C  0.48977936  0.53224859  0.45994469    -0.07600
C2147       C  0.50178861  0.54524160  0.48762811     0.13300
C2148       C  0.03083304  0.53442226  0.50178702    -0.21100
C2149       C  0.03549224  0.50491441  0.49858968    -0.07600
C2150       C  0.02046699  0.49085601  0.47356062     0.13300
C2151       C  0.02776048  0.96035165  0.46075775    -0.24400
H2152       H  0.98966197  0.49467291  0.43561945     0.14500
H2153       H  0.04249127  0.54585183  0.52000414     0.14600
C2154       C  0.49372649  0.57497795  0.49763250    -0.24400
H2155       H  0.01648799  0.95366102  0.43875971     0.04800
H2156       H  0.05097959  0.95894479  0.45584384     0.08000
H2157       H  0.01892863  0.44710085  0.48813178     0.08000
H2158       H  0.47048905  0.57617320  0.50251984     0.08000
H2159       H  0.49952056  0.59018157  0.47867639     0.08000
H2160       H  0.50499161  0.58168897  0.51962771     0.04800
C2161       C  0.10466462  0.53782854  0.69556279    -0.21000
C2162       C  0.08714151  0.52200782  0.71578976    -0.07600
C2163       C  0.06622648  0.50401306  0.70296437     0.13300
C2164       C  0.06509140  0.50029098  0.67005699    -0.21100
C2165       C  0.08464225  0.51383114  0.64978565    -0.07600
C2166       C  0.10343532  0.53426448  0.66251714     0.13300
C2167       C  0.12254291  0.55189620  0.64171937    -0.24400
H2168       H  0.11924292  0.55321048  0.70574857     0.14500
H2169       H  0.04862927  0.98019986  0.66057220     0.14600
C2170       C  0.04556946  0.48774614  0.72329469    -0.24400
H2171       H  0.13539214  0.56713835  0.65591682     0.04800
H2172       H  0.10930723  0.56424010  0.62480351     0.08000
H2173       H  0.13757827  0.53828888  0.62814485     0.08000
H2174       H  0.02341445  0.49399440  0.71711130     0.08000
H2175       H  0.04392343  0.99064664  0.74888650     0.08000
H2176       H  0.04708265  0.96224196  0.72046089     0.04800
C2177       C  0.11247052  0.99427500  0.40648685    -0.21000
C2178       C  0.12353521  0.97113177  0.38947725    -0.07600
C2179       C  0.12947771  0.94571857  0.40564618     0.13300
C2180       C  0.12762445  0.94513138  0.43885898    -0.21100
C2181       C  0.12028411  0.96955214  0.45650800    -0.07600
C2182       C  0.11156603  0.99431140  0.43976782     0.13300
C2183       C  0.10534270  0.51935503  0.45619056    -0.24400
H2184       H  0.10834140  0.01388858  0.39385048     0.14500
H2185       H  0.13310174  0.92564185  0.45103377     0.14600
C2186       C  0.14025542  0.91967430  0.38851546    -0.24400
H2187       H  0.09882543  0.53567389  0.43865215     0.04800
H2188       H  0.12366162  0.52805985  0.46975299     0.08000
H2189       H  0.08332293  0.01733685  0.47110519     0.08000
H2190       H  0.16213405  0.91456978  0.39681518     0.08000
H2191       H  0.14075495  0.92252957  0.36237361     0.08000
H2192       H  0.12606004  0.90148296  0.39368641     0.04800
C2193       C  0.01154784  0.91544047  0.60761598    -0.21000
C2194       C  0.03768107  0.90170308  0.60337991    -0.07600
C2195       C  0.04037630  0.87220827  0.60792053     0.13300
C2196       C  0.01570708  0.85641309  0.61228845    -0.21100
C2197       C  0.48720393  0.87321389  0.61375827    -0.07600
C2198       C  0.48541583  0.90305916  0.61363721     0.13300
C2199       C  0.45719906  0.91842877  0.61273664    -0.24400
H2200       H  0.01015344  0.93827298  0.60481290     0.14500
H2201       H  0.01687152  0.83341541  0.61226531     0.14600
C2202       C  0.06856642  0.85706315  0.60457686    -0.24400
H2203       H  0.45994179  0.94182284  0.61367501     0.04800
H2204       H  0.44397236  0.91209718  0.63335359     0.08000
H2205       H  0.44589926  0.91321914  0.59037062     0.08000
H2206       H  0.08389189  0.86539503  0.62239831     0.08000
H2207       H  0.07707062  0.86036583  0.58032262     0.08000
H2208       H  0.06651490  0.83384601  0.60831476     0.04800
C2209       C  0.21015853  0.50194175  0.57783677    -0.21000
C2210       C  0.18699259  0.99721329  0.59923071    -0.07600
C2211       C  0.19467534  0.00063411  0.63183387     0.13300
C2212       C  0.22452610  0.50883421  0.64186634    -0.21100
C2213       C  0.24521984  0.51402509  0.61873036    -0.07600
C2214       C  0.23808730  0.50969262  0.58620983     0.13300
C2215       C  0.25958176  0.51317972  0.55986211    -0.24400
H2216       H  0.20246553  0.99823945  0.55132387     0.14500
H2217       H  0.23011695  0.51175018  0.66666792     0.14600
C2218       C  0.17442206  0.99389629  0.65856953    -0.24400
H2219       H  0.24986811  0.51000835  0.53603878     0.04800
H2220       H  0.27685996  0.49719678  0.56238926     0.08000
H2221       H  0.26882430  0.53473963  0.56042577     0.08000
H2222       H  0.16957719  0.97086165  0.65849083     0.08000
H2223       H  0.15440939  0.00616783  0.65612588     0.08000
H2224       H  0.18369068  0.99910364  0.68217616     0.04800
C2225       C  0.14912883  0.86773045  0.61072700    -0.21000
C2226       C  0.13888329  0.87020508  0.57923906    -0.07600
C2227       C  0.13560074  0.84501855  0.56112700     0.13300
C2228       C  0.14256789  0.81856346  0.57481298    -0.21100
C2229       C  0.15218977  0.81617118  0.60648441    -0.07600
C2230       C  0.15564325  0.84125597  0.62450557     0.13300
C2231       C  0.16714795  0.84032929  0.65790104    -0.24400
H2232       H  0.15149648  0.88670186  0.62515397     0.14500
H2233       H  0.14043007  0.79944255  0.56057493     0.14600
C2234       C  0.12534167  0.84581278  0.52722109    -0.24400
H2235       H  0.16947924  0.86192961  0.66826688     0.04800
H2236       H  0.18845789  0.82996773  0.65796050     0.08000
H2237       H  0.15241833  0.82822737  0.67330637     0.08000
H2238       H  0.13906806  0.86017078  0.51313705     0.08000
H2239       H  0.10291854  0.85332653  0.52627971     0.08000
H2240       H  0.12612243  0.82450100  0.51589427     0.04800
O2241       O  0.56135086  0.46266749  0.51533762    -0.82500
C2242       C  0.65828250  0.48781208  0.58877780     0.96800
O2243       O  0.64716954  0.49545385  0.56269392    -0.71600
O2244       O  0.61546591  0.48804935  0.50956126    -0.75200
Al2245     Al  0.60665300  0.49597157  0.55339120     1.49000
C2246       C  0.61807665  0.46559973  0.49299143     0.92100
O2247       O  0.60790522  0.40147408  0.55111051    -0.81500
O2248       O  0.58381575  0.41934845  0.60580624    -0.75000
Al2249     Al  0.58661152  0.43533796  0.53623532     1.90100
O2250       O  0.63878025  0.41993679  0.58398143    -0.74100
O2251       O  0.58862189  0.47127842  0.62174426    -0.73900
O2252       O  0.64475472  0.47156437  0.60684886    -0.79600
O2253       O  0.59632723  0.01176147  0.59690411    -0.77800
O2254       O  0.60230306  0.45954300  0.56341965    -1.13900
O2255       O  0.56621805  0.00317736  0.54243750    -0.73100
C2256       C  0.55363543  0.48809500  0.52060033     0.97600
C2257       C  0.62888692  0.39838145  0.57006179     0.94000
Al2258     Al  0.61316215  0.44681648  0.60128955     1.55600
O2259       O  0.61498059  0.44145738  0.50548567    -0.77800
C2260       C  0.58857395  0.49781293  0.62028869     0.98200
C2261       C  0.56032521  0.41747267  0.59157570     0.93000
O2262       O  0.55658709  0.42801701  0.56444662    -0.83100
O2263       O  0.95897075  0.31707187  0.51821642    -0.82500
C2264       C  0.86528685  0.28916309  0.59230400     0.96800
O2265       O  0.87530634  0.28308091  0.56514703    -0.71600
O2266       O  0.90562704  0.29203351  0.51204300    -0.75200
Al2267     Al  0.91517891  0.28154330  0.55462588     1.49000
C2268       C  0.90220428  0.31549269  0.49812509     0.92100
O2269       O  0.91361751  0.37490004  0.56106348    -0.81500
O2270       O  0.94234423  0.35348900  0.61347826    -0.75000
Al2271     Al  0.93455891  0.34285439  0.54241594     1.90100
O2272       O  0.88621783  0.35523320  0.59662128    -0.74100
O2273       O  0.93816619  0.30004710  0.62347925    -0.73900
O2274       O  0.88062289  0.30185420  0.61247655    -0.79600
O2275       O  0.92442380  0.26362782  0.59474812    -0.77800
O2276       O  0.92063068  0.31700253  0.56823228    -1.13900
O2277       O  0.95453187  0.27609025  0.54169791    -0.73100
C2278       C  0.96716670  0.29158274  0.52150568     0.97600
C2279       C  0.89387966  0.37695436  0.58167136     0.94000
Al2280     Al  0.91250063  0.32661577  0.60813639     1.55600
O2281       O  0.90456000  0.33844183  0.51343389    -0.77800
C2282       C  0.93608053  0.27376763  0.61946543     0.98200
C2283       C  0.96439599  0.35709552  0.59709707     0.93000
O2284       O  0.96593371  0.34893017  0.56868520    -0.83100
O2285       O  0.72234909  0.18432762  0.63991697    -0.82500
C2286       C  0.66260179  0.28672196  0.61852920     0.96800
O2287       O  0.67577156  0.27112188  0.59905779    -0.71600
O2288       O  0.72961101  0.26534986  0.61719700    -0.75200
Al2289     Al  0.70106965  0.23960655  0.60403809     1.49000
C2290       C  0.75127900  0.25657380  0.63212574     0.92100
O2291       O  0.71381810  0.24305579  0.69953138    -0.81500
O2292       O  0.64891351  0.19864415  0.67025942    -0.75000
Al2293     Al  0.71691718  0.21473138  0.66849677     1.90100
O2294       O  0.66714767  0.24695391  0.69970285    -0.74100
O2295       O  0.63800635  0.22846758  0.61705113    -0.73900
O2296       O  0.65769382  0.27765522  0.64634693    -0.79600
O2297       O  0.67459678  0.21414326  0.58829824    -0.77800
O2298       O  0.69124723  0.23085378  0.64363082    -1.13900
O2299       O  0.72860072  0.21057304  0.59776848    -0.73100
C2300       C  0.73186663  0.18765337  0.61226717     0.97600
C2301       C  0.69088313  0.24838060  0.71390554     0.94000
Al2302     Al  0.65586425  0.23756716  0.65722460     1.55600
O2303       O  0.74911068  0.23582947  0.65119185    -0.77800
C2304       C  0.64821580  0.21654237  0.59245094     0.98200
C2305       C  0.66442536  0.18395443  0.68872572     0.93000
O2306       O  0.69058622  0.19023065  0.69131121    -0.83100
O2307       O  0.80492502  0.09494236  0.63665204    -0.82500
C2308       C  0.85920122  0.49245153  0.61553291     0.96800
O2309       O  0.84674243  0.00507108  0.59669492    -0.71600
O2310       O  0.79344589  0.01446479  0.61290969    -0.75200
Al2311     Al  0.82353706  0.03832828  0.60041818     1.49000
C2312       C  0.77167808  0.02463388  0.62634740     0.92100
O2313       O  0.80862224  0.03543570  0.69511166    -0.81500
O2314       O  0.87609529  0.07815232  0.66784724    -0.75000
Al2315     Al  0.80766175  0.06429332  0.66469418     1.90100
O2316       O  0.85535898  0.03083223  0.69663814    -0.74100
O2317       O  0.88718432  0.04753091  0.61472871    -0.73900
O2318       O  0.86485293  0.99942172  0.64395162    -0.79600
O2319       O  0.85156608  0.06167078  0.58464257    -0.77800
O2320       O  0.83313404  0.04714955  0.64016622    -1.13900
O2321       O  0.79816648  0.06938438  0.59360339    -0.73100
C2322       C  0.79620831  0.09250259  0.60847773     0.97600
C2323       C  0.83115766  0.02947814  0.70994538     0.94000
Al2324     Al  0.86800425  0.03940317  0.65454833     1.55600
O2325       O  0.77431304  0.04533478  0.64574611    -0.77800
C2326       C  0.87776083  0.05951729  0.58991533     0.98200
C2327       C  0.86118500  0.09260449  0.68730569     0.93000
O2328       O  0.83476768  0.08715574  0.68932941    -0.83100
O2329       O  0.81043188  0.42942232  0.88787965    -0.82500
C2330       C  0.91355011  0.48795376  0.87054477     0.96800
O2331       O  0.90178049  0.47067294  0.85173985    -0.71600
O2332       O  0.89247869  0.41802041  0.86954561    -0.75200
Al2333     Al  0.86873708  0.44715560  0.85325914     1.49000
C2334       C  0.88155225  0.39663081  0.88245356     0.92100
O2335       O  0.86879155  0.43817834  0.94724155    -0.81500
O2336       O  0.81996037  0.99894048  0.91477556    -0.75000
Al2337     Al  0.84019474  0.43419715  0.91680954     1.90100
O2338       O  0.86906699  0.48511392  0.94744083    -0.74100
O2339       O  0.85092615  0.01047983  0.86322768    -0.73900
O2340       O  0.90078212  0.49637682  0.89534449    -0.79600
O2341       O  0.84640698  0.47338175  0.83241023    -0.77800
O2342       O  0.85683274  0.45901239  0.89134369    -1.13900
O2343       O  0.83773955  0.42164801  0.84603103    -0.73100
C2344       C  0.81394147  0.42035512  0.85989108     0.97600
C2345       C  0.87262997  0.46148536  0.96151289     0.94000
Al2346     Al  0.86047040  0.49513980  0.90374781     1.55600
O2347       O  0.85998575  0.40011621  0.90033525    -0.77800
C2348       C  0.84405138  0.49955687  0.83671868     0.98200
C2349       C  0.80769950  0.48631640  0.93516773     0.93000
O2350       O  0.81558568  0.46098555  0.94031533    -0.83100
O2351       O  0.71962071  0.35276545  0.89116509    -0.82500
C2352       C  0.61883100  0.29122302  0.86850581     0.96800
O2353       O  0.63424855  0.30430588  0.84907539    -0.71600
O2354       O  0.63845978  0.35748046  0.86698520    -0.75200
Al2355     Al  0.66528205  0.32995866  0.85407365     1.49000
C2356       C  0.64632919  0.37976495  0.88107875     0.92100
O2357       O  0.66084997  0.34155320  0.95021075    -0.81500
O2358       O  0.70804706  0.27921480  0.91802634    -0.75000
Al2359     Al  0.68919470  0.34631308  0.91911911     1.90100
O2360       O  0.66028220  0.29509621  0.94923782    -0.74100
O2361       O  0.67755091  0.26757828  0.86588114    -0.73900
O2362       O  0.62832504  0.28635984  0.89625135    -0.79600
O2363       O  0.69181343  0.30428057  0.83831325    -0.77800
O2364       O  0.67417168  0.32046103  0.89357089    -1.13900
O2365       O  0.69376632  0.35778776  0.84825263    -0.73100
C2366       C  0.71669109  0.36106598  0.86302906     0.97600
C2367       C  0.65877261  0.31817455  0.96455450     0.94000
Al2368     Al  0.66871726  0.28497062  0.90633895     1.55600
O2369       O  0.66663048  0.37852181  0.90137846    -0.77800
C2370       C  0.68992925  0.27798223  0.84190939     0.98200
C2371       C  0.72197770  0.29416041  0.93773115     0.93000
O2372       O  0.71490899  0.32007510  0.94166122    -0.83100
O2373       O  0.58710527  0.10009515  0.78479140    -0.82500
C2374       C  0.60541660  0.49108674  0.84040647     0.96800
O2375       O  0.62148577  0.00404057  0.82491409    -0.71600
O2376       O  0.60213958  0.02192290  0.76776674    -0.75200
Al2377     Al  0.61970351  0.04069318  0.80300009     1.49000
C2378       C  0.58289946  0.03239317  0.75022038     0.92100
O2379       O  0.52970969  0.04487517  0.80673684    -0.81500
O2380       O  0.57531230  0.08034825  0.87374908    -0.75000
Al2381     Al  0.56070119  0.07092761  0.79801441     1.90100
O2382       O  0.53890492  0.03817769  0.85685748    -0.74100
O2383       O  0.61614767  0.04300994  0.87519721    -0.73900
O2384       O  0.58208530  0.00213616  0.85313347    -0.79600
O2385       O  0.64152787  0.05930429  0.83574839    -0.77800
O2386       O  0.58634986  0.05107862  0.82026234    -1.13900
O2387       O  0.62532653  0.07444197  0.77739610    -0.73100
C2388       C  0.61167514  0.09727937  0.77266611     0.97600
C2389       C  0.52181319  0.03700904  0.83401379     0.94000
Al2390     Al  0.57877334  0.04178752  0.86082809     1.55600
O2391       O  0.56649840  0.05168031  0.75977500    -0.77800
C2392       C  0.63811802  0.05477029  0.86498912     0.98200
C2393       C  0.56028335  0.09866300  0.85986948     0.93000
O2394       O  0.55072219  0.09470746  0.83219387    -0.83100
O2395       O  0.94440535  0.18302208  0.77073380    -0.82500
C2396       C  0.91632523  0.28272895  0.83935986     0.96800
O2397       O  0.91199004  0.27252546  0.81178158    -0.71600
O2398       O  0.92178166  0.23935633  0.76002395    -0.75200
Al2399     Al  0.90972425  0.23198045  0.80256026     1.49000
C2400       C  0.94582422  0.24065501  0.74648614     0.92100
O2401       O  0.00322988  0.22998346  0.81099767    -0.81500
O2402       O  0.98114123  0.20667112  0.86464314    -0.75000
Al2403     Al  0.97099055  0.20811882  0.79350761     1.90100
O2404       O  0.98265042  0.26058095  0.84333972    -0.74100
O2405       O  0.92667531  0.21083456  0.87261945    -0.73900
O2406       O  0.92865609  0.26761143  0.85983216    -0.79600
O2407       O  0.89087875  0.22513680  0.84282619    -0.77800
O2408       O  0.94481446  0.22528310  0.81722558    -1.13900
O2409       O  0.90252994  0.19275259  0.79078992    -0.73100
C2410       C  0.91788303  0.17768353  0.77233397     0.97600
C2411       C  0.50577274  0.25086683  0.83076834     0.94000
Al2412     Al  0.95375495  0.23550548  0.85667437     1.55600
O2413       O  0.96844811  0.23522000  0.76132436    -0.77800
C2414       C  0.90042705  0.21431971  0.86824841     0.98200
C2415       C  0.98636860  0.18365613  0.85072621     0.93000
O2416       O  0.97661033  0.17860317  0.82336706    -0.83100
O2417       O  0.81626345  0.21703999  0.01855887    -0.82500
C2418       C  0.91243416  0.24299009  0.09097182     0.96800
O2419       O  0.90171532  0.24927407  0.06434469    -0.71600
O2420       O  0.87039329  0.24088702  0.01198677    -0.75200
Al2421     Al  0.86164619  0.25098555  0.05521937     1.49000
C2422       C  0.87340337  0.21744819  0.99745028     0.92100
O2423       O  0.86193284  0.15724082  0.05879214    -0.81500
O2424       O  0.83617761  0.17752444  0.11196058    -0.75000
Al2425     Al  0.84087144  0.19018819  0.04164321     1.90100
O2426       O  0.89178141  0.17688855  0.09220238    -0.74100
O2427       O  0.84082013  0.23049086  0.12396106    -0.73900
O2428       O  0.89781000  0.22972059  0.11111297    -0.79600
O2429       O  0.85299447  0.26793516  0.09643329    -0.77800
O2430       O  0.85624997  0.21538812  0.06759327    -1.13900
O2431       O  0.82231733  0.25713346  0.04382696    -0.73100
C2432       C  0.80906753  0.24282935  0.02300267     0.97600
C2433       C  0.88270690  0.15505771  0.07820769     0.94000
Al2434     Al  0.86588943  0.20478768  0.10653497     1.55600
O2435       O  0.87004165  0.19434023  0.01188784    -0.77800
C2436       C  0.84184546  0.25686939  0.12085787     0.98200
C2437       C  0.81314984  0.17472470  0.09692837     0.93000
O2438       O  0.81014104  0.18438473  0.06929691    -0.83100
O2439       O  0.56411458  0.35107188  0.14013325    -0.82500
C2440       C  0.61723391  0.24525105  0.11670974     0.96800
O2441       O  0.60592944  0.26189334  0.09690385    -0.71600
O2442       O  0.55143155  0.27208006  0.11123880    -0.75200
Al2443     Al  0.58307144  0.29568786  0.10153992     1.49000
C2444       C  0.52991770  0.28125460  0.12631417     0.92100
O2445       O  0.56631842  0.28949493  0.19585061    -0.81500
O2446       O  0.63508893  0.33167242  0.17164458    -0.75000
Al2447     Al  0.56621382  0.31927991  0.16668483     1.90100
O2448       O  0.61280202  0.28446729  0.19904648    -0.74100
O2449       O  0.64648474  0.30145768  0.11804733    -0.73900
O2450       O  0.62196872  0.25388059  0.14487850    -0.79600
O2451       O  0.61240463  0.31937132  0.08837418    -0.77800
O2452       O  0.59177732  0.30251079  0.14204854    -1.13900
O2453       O  0.55851593  0.32727142  0.09574578    -0.73100
C2454       C  0.55580007  0.34965193  0.11179662     0.97600
C2455       C  0.58827510  0.28347762  0.21162485     0.94000
Al2456     Al  0.62621788  0.29340560  0.15710977     1.55600
O2457       O  0.53287514  0.30119860  0.14662406    -0.77800
C2458       C  0.63832434  0.31459536  0.09345776     0.98200
C2459       C  0.61984379  0.34625947  0.19067095     0.93000
O2460       O  0.59336634  0.34101207  0.19219182    -0.83100
O2461       O  0.71530499  0.06592638  0.01488156    -0.82500
C2462       C  0.61729698  0.04243672  0.08610934     0.96800
O2463       O  0.62775918  0.03638127  0.05910727    -0.71600
O2464       O  0.66092875  0.04365001  0.00658692    -0.75200
Al2465     Al  0.66820328  0.03388827  0.05061838     1.49000
C2466       C  0.65932545  0.06708600  0.99179733     0.92100
O2467       O  0.67103284  0.12783869  0.05360124    -0.81500
O2468       O  0.69462749  0.10753635  0.10751443    -0.75000
Al2469     Al  0.69121187  0.09385073  0.03723532     1.90100
O2470       O  0.63960028  0.10998683  0.08619462    -0.74100
O2471       O  0.68839825  0.05490376  0.12006894    -0.73900
O2472       O  0.63159266  0.05694130  0.10571534    -0.79600
O2473       O  0.67527188  0.01748288  0.09234836    -0.77800
O2474       O  0.67433149  0.06957902  0.06290342    -1.13900
O2475       O  0.70778121  0.02639276  0.04036236    -0.73100
C2476       C  0.72170783  0.04007911  0.01973909     0.97600
C2477       C  0.64977504  0.13127426  0.07211323     0.94000
Al2478     Al  0.66427884  0.08119671  0.10157238     1.55600
O2479       O  0.66260158  0.09023691  0.00644202    -0.77800
C2480       C  0.68613372  0.02855557  0.11711994     0.98200
C2481       C  0.71819226  0.10910981  0.09338948     0.93000
O2482       O  0.72156708  0.09892417  0.06589739    -0.83100
O2483       O  0.97211042  0.43668471  0.14100438    -0.82500
C2484       C  0.91760460  0.04063804  0.11486407     0.96800
O2485       O  0.93100930  0.02504347  0.09576990    -0.71600
O2486       O  0.98400767  0.01609671  0.11378971    -0.75200
Al2487     Al  0.95452314  0.49225781  0.10262445     1.49000
C2488       C  0.50500168  0.00357808  0.12803951     0.92100
O2489       O  0.96720994  0.49882796  0.19621775    -0.81500
O2490       O  0.90103376  0.45323645  0.16951153    -0.75000
Al2491     Al  0.96898839  0.46849503  0.16774984     1.90100
O2492       O  0.92108964  0.00122721  0.19566349    -0.74100
O2493       O  0.89035024  0.48163945  0.11481585    -0.73900
O2494       O  0.91137738  0.03129533  0.14218946    -0.79600
O2495       O  0.92733030  0.46843576  0.08625886    -0.77800
O2496       O  0.94381812  0.48438186  0.14203088    -1.13900
O2497       O  0.97994920  0.46145661  0.09783622    -0.73100
C2498       C  0.98157121  0.43874357  0.11315183     0.97600
C2499       C  0.94536028  0.00259003  0.20895837     0.94000
Al2500     Al  0.90843695  0.49173591  0.15508271     1.55600
O2501       O  0.50287224  0.48523920  0.14724659    -0.77800
C2502       C  0.90088660  0.47019077  0.09006280     0.98200
C2503       C  0.91586899  0.43995956  0.18990350     0.93000
O2504       O  0.94190017  0.44657016  0.19287491    -0.83100
O2505       O  0.96749816  0.10663177  0.39067417    -0.82500
C2506       C  0.86691567  0.04646130  0.36556399     0.96800
O2507       O  0.88079506  0.06182591  0.34692402    -0.71600
O2508       O  0.88597400  0.11438387  0.36853747    -0.75200
Al2509     Al  0.91199453  0.08681925  0.35292433     1.49000
C2510       C  0.89508965  0.13581586  0.38349057     0.92100
O2511       O  0.90841841  0.09403081  0.44922604    -0.81500
O2512       O  0.95672690  0.03308508  0.41505139    -0.75000
Al2513     Al  0.93712026  0.09973149  0.41863005     1.90100
O2514       O  0.90759568  0.04749845  0.44552574    -0.74100
O2515       O  0.92714500  0.02349501  0.36125865    -0.73900
O2516       O  0.87734331  0.03946663  0.39215665    -0.79600
O2517       O  0.93722090  0.06170912  0.33394022    -0.77800
O2518       O  0.92192451  0.07504022  0.39161859    -1.13900
O2519       O  0.94095455  0.11411289  0.34850525    -0.73100
C2520       C  0.96426549  0.11598733  0.36290589     0.97600
C2521       C  0.90500854  0.06997983  0.46186181     0.94000
Al2522     Al  0.91733776  0.03889614  0.40251140     1.55600
O2523       O  0.91578182  0.13292484  0.40282709    -0.77800
C2524       C  0.93722920  0.03522995  0.33673725     0.98200
C2525       C  0.96959240  0.04740251  0.43626255     0.93000
O2526       O  0.96213149  0.07300338  0.44063100    -0.83100
O2527       O  0.55969333  0.18273999  0.38773689    -0.82500
C2528       C  0.66113841  0.24442382  0.37307152     0.96800
O2529       O  0.64855686  0.22880641  0.35324265    -0.71600
O2530       O  0.64201410  0.17554294  0.36996464    -0.75200
Al2531     Al  0.61695887  0.20392771  0.35470069     1.49000
C2532       C  0.63215630  0.15357082  0.38279622     0.92100
O2533       O  0.61643008  0.19213630  0.44933055    -0.81500
O2534       O  0.56836280  0.25441016  0.41783129    -0.75000
Al2535     Al  0.58882804  0.18805582  0.41750548     1.90100
O2536       O  0.61669219  0.23887628  0.45001720    -0.74100
O2537       O  0.60046998  0.26716978  0.36636291    -0.73900
O2538       O  0.64915397  0.25070869  0.39915046    -0.79600
O2539       O  0.59316614  0.22999921  0.33566503    -0.77800
O2540       O  0.60500797  0.21407677  0.39330784    -1.13900
O2541       O  0.58769434  0.17708297  0.34628891    -0.73100
C2542       C  0.56385582  0.17455800  0.35955902     0.97600
C2543       C  0.61956748  0.21533667  0.46410767     0.94000
Al2544     Al  0.60854676  0.24979669  0.40714282     1.55600
O2545       O  0.61042792  0.15562530  0.40064122    -0.77800
C2546       C  0.59230734  0.25627502  0.34030381     0.98200
C2547       C  0.55498408  0.23880011  0.43722843     0.93000
O2548       O  0.56302915  0.21331984  0.44028105    -0.83100
O2549       O  0.83489341  0.34710630  0.27039843    -0.82500
C2550       C  0.86098411  0.24934644  0.34104132     0.96800
O2551       O  0.86602761  0.25911151  0.31358193    -0.71600
O2552       O  0.85624200  0.29088826  0.26153680    -0.75200
Al2553     Al  0.86883867  0.29921263  0.30368231     1.49000
C2554       C  0.83200416  0.28913828  0.24845679     0.92100
O2555       O  0.77532672  0.30436113  0.31290756    -0.81500
O2556       O  0.79900783  0.32832978  0.36558596    -0.75000
Al2557     Al  0.80816915  0.32385234  0.29439412     1.90100
O2558       O  0.79461847  0.27371734  0.34566328    -0.74100
O2559       O  0.85273946  0.32173967  0.37350789    -0.73900
O2560       O  0.84849882  0.26484879  0.36124052    -0.79600
O2561       O  0.88810853  0.30661657  0.34354646    -0.77800
O2562       O  0.83392245  0.30673590  0.31839587    -1.13900
O2563       O  0.87654089  0.33819243  0.29122956    -0.73100
C2564       C  0.86125336  0.35275392  0.27235646     0.97600
C2565       C  0.77284752  0.28359942  0.33190572     0.94000
Al2566     Al  0.82473140  0.29784985  0.35806611     1.55600
O2567       O  0.80946897  0.29518758  0.26331188    -0.77800
C2568       C  0.87886748  0.31800061  0.36888338     0.98200
C2569       C  0.79612784  0.35150113  0.35138591     0.93000
O2570       O  0.80475355  0.35454476  0.32326360    -0.83100
O2571       O  0.69816286  0.43477460  0.28336764    -0.82500
C2572       C  0.66921133  0.04268858  0.33731840     0.96800
O2573       O  0.65270974  0.02652632  0.32156343    -0.71600
O2574       O  0.67102762  0.00720597  0.26436788    -0.75200
Al2575     Al  0.65959662  0.49093016  0.30233986     1.49000
C2576       C  0.69047866  0.99816864  0.24602261     0.92100
O2577       O  0.75021694  0.49735106  0.30068998    -0.81500
O2578       O  0.71264720  0.45920396  0.37099522    -0.75000
Al2579     Al  0.72173818  0.46757392  0.29414934     1.90100
O2580       O  0.74108757  0.50471938  0.35063438    -0.74100
O2581       O  0.66735140  0.49070349  0.37457956    -0.73900
O2582       O  0.69318122  0.03391408  0.34659941    -0.79600
O2583       O  0.64138677  0.47189465  0.33692314    -0.77800
O2584       O  0.69482189  0.48494068  0.31763711    -1.13900
O2585       O  0.65674952  0.45572449  0.27935420    -0.73100
C2586       C  0.67247880  0.43442540  0.27377002     0.97600
C2587       C  0.75568176  0.00508376  0.32687562     0.94000
Al2588     Al  0.70309075  0.49627741  0.35744808     1.55600
O2589       O  0.71150056  0.48468883  0.25555199    -0.77800
C2590       C  0.64591851  0.47716697  0.36580827     0.98200
C2591       C  0.73104048  0.44394113  0.35735242     0.93000
O2592       O  0.73697657  0.44684738  0.32834591    -0.83100
C2593       C  0.79376021  0.40092776  0.36875031    -0.21000
C2594       C  0.78059028  0.37451217  0.36670113    -0.07600
C2595       C  0.75138442  0.37166935  0.37421152     0.13300
C2596       C  0.73491064  0.39622852  0.37809926    -0.21100
C2597       C  0.74743667  0.42283579  0.37458869    -0.07600
C2598       C  0.77741369  0.42524911  0.37369314     0.13300
C2599       C  0.79215420  0.45353496  0.37422871    -0.24400
H2600       H  0.81644911  0.40277906  0.36426522     0.14500
H2601       H  0.71190867  0.39458130  0.37900619     0.14600
C2602       C  0.73693364  0.34320447  0.37439244    -0.24400
H2603       H  0.80895628  0.45353690  0.39282095     0.04800
H2604       H  0.77709002  0.47096724  0.38002987     0.08000
H2605       H  0.80213816  0.45760968  0.35078774     0.08000
H2606       H  0.74730109  0.32923148  0.39215793     0.08000
H2607       H  0.73837824  0.33337879  0.35046131     0.08000
H2608       H  0.71400523  0.34504800  0.38067490     0.04800
C2609       C  0.69456413  0.26126139  0.33146285    -0.21000
C2610       C  0.68969372  0.25568656  0.36389508    -0.07600
C2611       C  0.71241194  0.25945042  0.38554395     0.13300
C2612       C  0.73941774  0.26750000  0.37403506    -0.21100
C2613       C  0.74414058  0.27323326  0.34160078    -0.07600
C2614       C  0.72105597  0.27080339  0.32025704     0.13300
C2615       C  0.72426249  0.27756816  0.28552436    -0.24400
H2616       H  0.67735096  0.25834095  0.31460639     0.14500
H2617       H  0.75683730  0.27013735  0.39070137     0.14600
C2618       C  0.70858455  0.25443397  0.42058312    -0.24400
H2619       H  0.70438738  0.27322818  0.27201392     0.04800
H2620       H  0.74156570  0.26436637  0.27516759     0.08000
H2621       H  0.72929763  0.30038612  0.28253014     0.08000
H2622       H  0.70125923  0.23237184  0.42461977     0.08000
H2623       H  0.69263396  0.26961104  0.43033625     0.08000
H2624       H  0.72878917  0.25753223  0.43391185     0.04800
C2625       C  0.65360042  0.07498373  0.38071114    -0.21000
C2626       C  0.65957154  0.07111787  0.34823106    -0.07600
C2627       C  0.65750634  0.09446173  0.32767423     0.13300
C2628       C  0.64972857  0.12122464  0.34007854    -0.21100
C2629       C  0.64321935  0.12518201  0.37254858    -0.07600
C2630       C  0.64499823  0.10155347  0.39305232     0.13300
C2631       C  0.63842578  0.10428283  0.42796350    -0.24400
H2632       H  0.65537508  0.05692783  0.39647180     0.14500
H2633       H  0.64785130  0.13904682  0.32403163     0.14600
C2634       C  0.66374649  0.09111053  0.29277471    -0.24400
H2635       H  0.64239491  0.08407343  0.44072180     0.04800
H2636       H  0.61565872  0.10996207  0.43139384     0.08000
H2637       H  0.65208204  0.12091777  0.43882348     0.08000
H2638       H  0.64881304  0.07551392  0.28208504     0.08000
H2639       H  0.68595740  0.08341738  0.28944609     0.08000
H2640       H  0.66131652  0.11149793  0.27992679     0.04800
C2641       C  0.51489462  0.17447406  0.34180484    -0.21000
C2642       C  0.54092982  0.16007400  0.34343076    -0.07600
C2643       C  0.54226404  0.13040413  0.33944986     0.13300
C2644       C  0.51683888  0.11522016  0.33981882    -0.21100
C2645       C  0.98751149  0.13063589  0.34797449    -0.07600
C2646       C  0.98572257  0.16003451  0.34241863     0.13300
C2647       C  0.95766080  0.17574068  0.34290399    -0.24400
H2648       H  0.51444828  0.19740301  0.34435614     0.14500
H2649       H  0.51735738  0.09221070  0.34049981     0.14600
C2650       C  0.57028786  0.11465888  0.33872030    -0.24400
H2651       H  0.96046477  0.19878088  0.33850004     0.04800
H2652       H  0.94731478  0.17331661  0.36642113     0.08000
H2653       H  0.94346052  0.16713451  0.32409562     0.08000
H2654       H  0.58181005  0.11791637  0.36145085     0.08000
H2655       H  0.58352242  0.12253875  0.31880097     0.08000
H2656       H  0.56723010  0.09147428  0.33531780     0.04800
C2657       C  0.87928251  0.16958915  0.34150448    -0.21000
C2658       C  0.88468826  0.16472042  0.37400573    -0.07600
C2659       C  0.88251598  0.18792467  0.39530403     0.13300
C2660       C  0.87481120  0.21496494  0.38369676    -0.21100
C2661       C  0.86988122  0.21998875  0.35105723    -0.07600
C2662       C  0.87236571  0.19676736  0.32973838     0.13300
C2663       C  0.86741195  0.20023444  0.29460509    -0.24400
H2664       H  0.88143481  0.15207479  0.32486542     0.14500
H2665       H  0.87299511  0.23249181  0.40037056     0.14600
C2666       C  0.88767356  0.18425017  0.43037354    -0.24400
H2667       H  0.86924789  0.17971139  0.28163505     0.04800
H2668       H  0.88354445  0.21482731  0.28457738     0.08000
H2669       H  0.84569077  0.20887318  0.29035299     0.08000
H2670       H  0.91022485  0.17822926  0.43469542     0.08000
H2671       H  0.87343004  0.16751186  0.43976406     0.08000
H2672       H  0.88337495  0.20414378  0.44385056     0.04800
C2673       C  0.78739245  0.03259433  0.36284973    -0.21000
C2674       C  0.78410953  0.01825692  0.33340988    -0.07600
C2675       C  0.80841937  0.01463207  0.31393757     0.13300
C2676       C  0.83505102  0.02458723  0.32481769    -0.21100
C2677       C  0.83833199  0.03678014  0.35526182    -0.07600
C2678       C  0.81404404  0.04148904  0.37409161     0.13300
C2679       C  0.81600214  0.05669960  0.40564765    -0.24400
H2680       H  0.76898683  0.03634162  0.37784791     0.14500
H2681       H  0.85354943  0.02231912  0.30966053     0.14600
C2682       C  0.80882498  0.50516135  0.28237709    -0.24400
H2683       H  0.79471940  0.05964613  0.41675862     0.04800
H2684       H  0.82555801  0.07800162  0.40228303     0.08000
H2685       H  0.82940319  0.04427483  0.42231197     0.08000
H2686       H  0.79348435  0.51750975  0.26781045     0.08000
H2687       H  0.80180838  0.48272473  0.28376364     0.08000
H2688       H  0.82979683  0.50545237  0.27015186     0.04800
C2689       C  0.87366121  0.40986321  0.20687561    -0.21000
C2690       C  0.90251786  0.41727322  0.21116978    -0.07600
C2691       C  0.91736506  0.40343545  0.23642247     0.13300
C2692       C  0.90332074  0.38314217  0.25572470    -0.21100
C2693       C  0.87447438  0.37573659  0.25142782    -0.07600
C2694       C  0.85960648  0.38959262  0.22620423     0.13300
C2695       C  0.82883804  0.38313146  0.21883362    -0.24400
H2696       H  0.86178090  0.42006797  0.18801661     0.14500
H2697       H  0.91520690  0.37289184  0.27454892     0.14600
C2698       C  0.94815485  0.40980959  0.24373472    -0.24400
H2699       H  0.82080148  0.39559420  0.19835868     0.04800
H2700       H  0.81527764  0.38857383  0.23961581     0.08000
H2701       H  0.82648196  0.36032256  0.21263845     0.08000
H2702       H  0.95054137  0.43257350  0.25012518     0.08000
H2703       H  0.96164408  0.40449583  0.22285380     0.08000
H2704       H  0.95623639  0.39720179  0.26407669     0.04800
C2705       C  0.96695917  0.03139350  0.28928474    -0.21000
C2706       C  0.94591766  0.01907022  0.30851347    -0.07600
C2707       C  0.92779451  0.99816829  0.29558909     0.13300
C2708       C  0.92835923  0.49607855  0.26450477    -0.21100
C2709       C  0.94694173  0.00839277  0.24306339    -0.07600
C2710       C  0.96780500  0.02618043  0.25657529     0.13300
C2711       C  0.98972689  0.04099622  0.23652265    -0.24400
H2712       H  0.98120004  0.04707784  0.29951562     0.14500
H2713       H  0.91386663  0.48055589  0.25443409     0.14600
C2714       C  0.90894297  0.48367210  0.31808503    -0.24400
H2715       H  0.00331310  0.05538482  0.25097815     0.04800
H2716       H  0.97895855  0.05384961  0.21799465     0.08000
H2717       H  0.00394161  0.02511037  0.22504784     0.08000
H2718       H  0.89356197  0.49795025  0.33021004     0.08000
H2719       H  0.92150878  0.47197446  0.33616957     0.08000
H2720       H  0.89652381  0.46793063  0.30409142     0.04800
C2721       C  0.71481537  0.01446268  0.19754315    -0.21000
C2722       C  0.68993799  0.00433844  0.21189760    -0.07600
C2723       C  0.66739701  0.49803002  0.19309351     0.13300
C2724       C  0.66827674  0.99935059  0.15972392    -0.21100
C2725       C  0.69190777  0.01229024  0.14583302    -0.07600
C2726       C  0.71598725  0.01880131  0.16470507     0.13300
C2727       C  0.74270860  0.03132177  0.15080481    -0.24400
H2728       H  0.73319705  0.01958474  0.21211697     0.14500
H2729       H  0.64988404  0.49673643  0.14577340     0.14600
C2730       C  0.64165485  0.48399191  0.20734509    -0.24400
H2731       H  0.76125397  0.01762992  0.15676766     0.04800
H2732       H  0.74622848  0.05285464  0.16089894     0.08000
H2733       H  0.74166811  0.03294875  0.12453144     0.08000
H2734       H  0.63117317  0.49851729  0.22462777     0.08000
H2735       H  0.64826521  0.46419126  0.21934846     0.08000
H2736       H  0.62571353  0.47815620  0.18894502     0.04800
C2737       C  0.53749667  0.02547765  0.08809583    -0.21000
C2738       C  0.53413496  0.01382112  0.11868964    -0.07600
C2739       C  0.55866954  0.01117971  0.13814432     0.13300
C2740       C  0.58528930  0.02081444  0.12685699    -0.21100
C2741       C  0.58856728  0.03201159  0.09608698    -0.07600
C2742       C  0.56424003  0.03422882  0.07650420     0.13300
C2743       C  0.56618887  0.04664122  0.04368680    -0.24400
H2744       H  0.51905750  0.02730726  0.07270805     0.14500
H2745       H  0.60383589  0.01928674  0.14211379     0.14600
C2746       C  0.55806050  0.50087082  0.17031134    -0.24400
H2747       H  0.54497859  0.04792469  0.03202998     0.04800
H2748       H  0.58015518  0.03317286  0.02852753     0.08000
H2749       H  0.57506852  0.06842561  0.04509887     0.08000
H2750       H  0.55190960  0.47818490  0.16880868     0.08000
H2751       H  0.54107577  0.01071426  0.18533069     0.08000
H2752       H  0.57904403  0.50191413  0.18245206     0.04800
C2753       C  0.66298955  0.36955390  0.21676634    -0.21000
C2754       C  0.63309570  0.36873786  0.21245121    -0.07600
C2755       C  0.61661803  0.38880518  0.23016165     0.13300
C2756       C  0.63016362  0.40876232  0.25040484    -0.21100
C2757       C  0.66000882  0.40990847  0.25441145    -0.07600
C2758       C  0.67651687  0.38952720  0.23732758     0.13300
C2759       C  0.70852619  0.38891090  0.23998743    -0.24400
H2760       H  0.67603831  0.35430464  0.20398201     0.14500
H2761       H  0.61704033  0.42400505  0.26312347     0.14600
C2762       C  0.58454542  0.39002324  0.22775871    -0.24400
H2763       H  0.71809384  0.37192235  0.22496548     0.04800
H2764       H  0.71484928  0.38481352  0.26497412     0.08000
H2765       H  0.71744287  0.40949641  0.23212162     0.08000
H2766       H  0.57519405  0.37008272  0.23692384     0.08000
H2767       H  0.57806702  0.39332548  0.20266456     0.08000
H2768       H  0.57537982  0.40774040  0.24202306     0.04800
C2769       C  0.56249261  0.26263086  0.29357994    -0.21000
C2770       C  0.58482555  0.27316442  0.31243701    -0.07600
C2771       C  0.60564047  0.29062593  0.29859277     0.13300
C2772       C  0.60624552  0.29327398  0.26549178    -0.21100
C2773       C  0.58581783  0.27980037  0.24620617    -0.07600
C2774       C  0.56256804  0.26593225  0.26056413     0.13300
C2775       C  0.53866391  0.25327252  0.24132180    -0.24400
H2776       H  0.54638641  0.24941550  0.30447733     0.14500
H2777       H  0.62290740  0.30577613  0.25458354     0.14600
C2778       C  0.62794472  0.30531116  0.31844796    -0.24400
H2779       H  0.52336620  0.24153840  0.25643757     0.04800
H2780       H  0.54738055  0.23825291  0.22333526     0.08000
H2781       H  0.52660524  0.27046098  0.22938067     0.08000
H2782       H  0.64071300  0.28959722  0.33176987     0.08000
H2783       H  0.61737665  0.31990670  0.33560735     0.08000
H2784       H  0.64276337  0.31794292  0.30364411     0.04800
C2785       C  0.51002749  0.36680072  0.09346028    -0.21000
C2786       C  0.53881068  0.37271035  0.09938193    -0.07600
C2787       C  0.54864579  0.40085394  0.10044631     0.13300
C2788       C  0.52879422  0.42276679  0.09838279    -0.21100
C2789       C  0.99930970  0.41640219  0.10104639    -0.07600
C2790       C  0.98852996  0.38916234  0.09507966     0.13300
C2791       C  0.95701506  0.38390485  0.09192772    -0.24400
H2792       H  0.99969077  0.34508515  0.09140892     0.14500
H2793       H  0.53576176  0.44455786  0.10140611     0.14600
C2794       C  0.57961786  0.40772971  0.10564261    -0.24400
H2795       H  0.95235416  0.36112180  0.08752073     0.04800
H2796       H  0.94860570  0.39625978  0.07163190     0.08000
H2797       H  0.94580275  0.39051755  0.11399889     0.08000
H2798       H  0.59238735  0.39771241  0.08654716     0.08000
H2799       H  0.58691329  0.39967291  0.12900124     0.08000
H2800       H  0.58351911  0.43096682  0.10516310     0.04800
C2801       C  0.63379894  0.21165195  0.07382150    -0.21000
C2802       C  0.62520709  0.21581526  0.10568949    -0.07600
C2803       C  0.62314045  0.19170864  0.12538852     0.13300
C2804       C  0.63001808  0.16458998  0.11308639    -0.21100
C2805       C  0.63951799  0.16046905  0.08157191    -0.07600
C2806       C  0.64127577  0.18454260  0.06168277     0.13300
C2807       C  0.65048108  0.18181834  0.02750689    -0.24400
H2808       H  0.63510724  0.22988232  0.05832664     0.14500
H2809       H  0.62879542  0.14646290  0.12872903     0.14600
C2810       C  0.61304867  0.19423132  0.15926446    -0.24400
H2811       H  0.64875041  0.20233901  0.01480843     0.04800
H2812       H  0.63675188  0.16619658  0.01497807     0.08000
H2813       H  0.67306249  0.17483025  0.02620468     0.08000
H2814       H  0.59167201  0.20444000  0.15993611     0.08000
H2815       H  0.62834904  0.20707247  0.17334912     0.08000
H2816       H  0.61132844  0.17316675  0.17078243     0.04800
C2817       C  0.84944276  0.29913264  0.19490913    -0.21000
C2818       C  0.83061599  0.28387983  0.21425302    -0.07600
C2819       C  0.81072589  0.26527883  0.20047174     0.13300
C2820       C  0.81153116  0.26086906  0.16764388    -0.21100
C2821       C  0.83286433  0.27329726  0.14879623    -0.07600
C2822       C  0.85098881  0.29392430  0.16221833     0.13300
C2823       C  0.87335314  0.30886476  0.14290219    -0.24400
H2824       H  0.86379961  0.31439454  0.20567634     0.14500
H2825       H  0.79754180  0.24511998  0.15714897     0.14600
C2826       C  0.79033429  0.24836146  0.22041075    -0.24400
H2827       H  0.88530120  0.32462436  0.15737541     0.04800
H2828       H  0.86303392  0.32029952  0.12295293     0.08000
H2829       H  0.88898417  0.29327617  0.13336234     0.08000
H2830       H  0.77529425  0.26288799  0.23271514     0.08000
H2831       H  0.80238958  0.23581469  0.23823864     0.08000
H2832       H  0.77758551  0.23337722  0.20576567     0.04800
C2833       C  0.76350418  0.17103508  0.11273110    -0.21000
C2834       C  0.79018150  0.15797436  0.11001372    -0.07600
C2835       C  0.79272320  0.12816977  0.11112931     0.13300
C2836       C  0.76797378  0.11192314  0.10965329    -0.21100
C2837       C  0.74134674  0.12516939  0.10746695    -0.07600
C2838       C  0.73874434  0.15479668  0.11160953     0.13300
C2839       C  0.71021179  0.16956436  0.11118007    -0.24400
H2840       H  0.76202398  0.19401332  0.11231738     0.14500
H2841       H  0.76949128  0.08903790  0.10712101     0.14600
C2842       C  0.82130675  0.11352304  0.11043317    -0.24400
H2843       H  0.71228237  0.19281464  0.11496644     0.04800
H2844       H  0.69645924  0.16108647  0.13033154     0.08000
H2845       H  0.69987567  0.16616468  0.08780908     0.08000
H2846       H  0.83435620  0.12076421  0.13090716     0.08000
H2847       H  0.83241856  0.11842693  0.08793965     0.08000
H2848       H  0.81920129  0.09009571  0.11191497     0.04800
C2849       C  0.99236237  0.25878861  0.08815370    -0.21000
C2850       C  0.99773492  0.26749783  0.11967012    -0.07600
C2851       C  0.97492727  0.26728652  0.14168792     0.13300
C2852       C  0.94756138  0.25913264  0.13149354    -0.21100
C2853       C  0.94199120  0.25155463  0.09971757    -0.07600
C2854       C  0.96488124  0.25098362  0.07788044     0.13300
C2855       C  0.96071149  0.24145231  0.04395239    -0.24400
H2856       H  0.00966781  0.25880245  0.07111533     0.14500
H2857       H  0.93021756  0.25901715  0.14849536     0.14600
C2858       C  0.97931673  0.27469820  0.17619006    -0.24400
H2859       H  0.98115472  0.24084622  0.03066808     0.04800
H2860       H  0.94621642  0.25634566  0.03146559     0.08000
H2861       H  0.95150466  0.21977377  0.04342158     0.08000
H2862       H  0.49192706  0.28593734  0.18292857     0.08000
H2863       H  0.50506541  0.24977329  0.17983244     0.08000
H2864       H  0.95964618  0.27147868  0.19036947     0.04800
C2865       C  0.90749282  0.09147418  0.12763671    -0.21000
C2866       C  0.90960100  0.07001646  0.10458615    -0.07600
C2867       C  0.90480763  0.07734431  0.07215604     0.13300
C2868       C  0.89626740  0.10516502  0.06432759    -0.21100
C2869       C  0.89412242  0.12656733  0.08742475    -0.07600
C2870       C  0.90052823  0.11962253  0.11955841     0.13300
C2871       C  0.89927258  0.14134255  0.14599036    -0.24400
H2872       H  0.91176479  0.08624941  0.15223220     0.14500
H2873       H  0.89158115  0.11039586  0.03982433     0.14600
C2874       C  0.90856016  0.05627521  0.04531078    -0.24400
H2875       H  0.90444642  0.13193193  0.16943853     0.04800
H2876       H  0.87750098  0.15044108  0.14768444     0.08000
H2877       H  0.91501784  0.15839785  0.14164786     0.08000
H2878       H  0.89505275  0.03742226  0.04908992     0.08000
H2879       H  0.93124423  0.04966910  0.04362948     0.08000
H2880       H  0.90255597  0.06546986  0.02199627     0.04800
C2881       C  0.87320830  0.23684371  0.90977227    -0.21000
C2882       C  0.88272488  0.21133267  0.89634625    -0.07600
C2883       C  0.88614225  0.18726963  0.91554114     0.13300
C2884       C  0.88372062  0.19017069  0.94844929    -0.21100
C2885       C  0.87718953  0.21655685  0.96258593    -0.07600
C2886       C  0.87051306  0.23997651  0.94271248     0.13300
C2887       C  0.86092352  0.26845724  0.95545089    -0.24400
H2888       H  0.87069026  0.25524771  0.89464959     0.14500
H2889       H  0.88730031  0.17168416  0.96314431     0.14600
C2890       C  0.89291115  0.15871682  0.90107927    -0.24400
H2891       H  0.85626669  0.28370566  0.93608594     0.04800
H2892       H  0.87789809  0.27788936  0.97050614     0.08000
H2893       H  0.84103689  0.26603084  0.96936946     0.08000
H2894       H  0.91304676  0.15962828  0.88750235     0.08000
H2895       H  0.87546584  0.15247251  0.88466569     0.08000
H2896       H  0.89514889  0.14201998  0.91944080     0.04800
C2897       C  0.64947108  0.08887348  0.90523370    -0.21000
C2898       C  0.65787745  0.06384641  0.88967239    -0.07600
C2899       C  0.67115769  0.04221923  0.90729216    -0.01100
C2900       C  0.67083967  0.04373894  0.94053421    -0.21100
C2901       C  0.65859194  0.06709382  0.95655986    -0.07600
C2902       C  0.64934504  0.09076916  0.93853555     0.13300
C2903       C  0.63756817  0.11734696  0.95386529    -0.24400
H2904       H  0.63922636  0.10545033  0.89149168     0.14500
H2905       H  0.67996768  0.02639846  0.95401368     0.14600
C2906       C  0.68383319  0.01663871  0.89077573    -0.24400
H2907       H  0.62935798  0.13256284  0.93596183     0.04800
H2908       H  0.65457135  0.12837038  0.96743470     0.08000
H2909       H  0.61968096  0.11188724  0.96994010     0.08000
H2910       H  0.70115584  0.02358355  0.87468137     0.08000
H2911       H  0.66743546  0.00542789  0.87649132     0.08000
H2912       H  0.69299995  0.00133136  0.90800221     0.04800
C2913       C  0.53762518  0.16889843  0.85020257    -0.21000
C2914       C  0.00739906  0.16460709  0.86448874    -0.07600
C2915       C  0.99965754  0.14095201  0.88265913     0.13300
C2916       C  0.52577033  0.12411098  0.89093504    -0.21100
C2917       C  0.55200891  0.12519458  0.87512421    -0.07600
C2918       C  0.55924565  0.14987594  0.85834966     0.13300
C2919       C  0.58909960  0.15422849  0.84620173    -0.24400
H2920       H  0.54229589  0.18673005  0.83492088     0.14500
H2921       H  0.01359347  0.09995356  0.89869693     0.14600
C2922       C  0.96952244  0.13696433  0.89372935    -0.24400
H2923       H  0.59097185  0.17432859  0.83271326     0.04800
H2924       H  0.59554838  0.13652299  0.83030055     0.08000
H2925       H  0.60408263  0.15513055  0.86660395     0.08000
H2926       H  0.95520178  0.13552702  0.87279437     0.08000
H2927       H  0.96307612  0.15525765  0.90889678     0.08000
H2928       H  0.96713317  0.11724709  0.90778785     0.04800
C2929       C  0.75495826  0.29585437  0.98538693    -0.21000
C2930       C  0.74528389  0.28094695  0.95828099    -0.07600
C2931       C  0.75679476  0.25327776  0.95308949     0.13300
C2932       C  0.77685067  0.24167020  0.97473550    -0.21100
C2933       C  0.78634897  0.25647058  0.00199074    -0.07600
C2934       C  0.77508739  0.28427120  0.00699165     0.13300
C2935       C  0.78379014  0.30210522  0.03518991    -0.24400
H2936       H  0.74636572  0.31683684  0.99010353     0.14500
H2937       H  0.78542352  0.22068377  0.97000627     0.14600
C2938       C  0.74847281  0.23562063  0.92460019    -0.24400
H2939       H  0.77210389  0.32264362  0.03605452     0.04800
H2940       H  0.80687004  0.30704350  0.03382380     0.08000
H2941       H  0.77911141  0.29062128  0.05753313     0.08000
H2942       H  0.75283330  0.24752509  0.90244914     0.08000
H2943       H  0.72553634  0.23007994  0.92590465     0.08000
H2944       H  0.76065463  0.21538170  0.92336482     0.04800
C2945       C  0.65525211  0.34366409  0.01614825    -0.21000
C2946       C  0.65880178  0.31778108  0.99981202    -0.07600
C2947       C  0.66598171  0.29308594  0.01762824     0.13300
C2948       C  0.66561049  0.29449968  0.05085496    -0.21100
C2949       C  0.65721181  0.31929962  0.06656482    -0.07600
C2950       C  0.65464574  0.34466739  0.04932081     0.13300
C2951       C  0.64961633  0.37274610  0.06551088    -0.24400
H2952       H  0.65194704  0.36317295  0.00311292     0.14500
H2953       H  0.66805125  0.27514904  0.06444984     0.14600
C2954       C  0.67327771  0.26481965  0.00256842    -0.24400
H2955       H  0.66730044  0.38741229  0.05967408     0.04800
H2956       H  0.64858994  0.37068685  0.09175467     0.08000
H2957       H  0.62938263  0.38204019  0.05675574     0.08000
H2958       H  0.69208427  0.26699801  0.98691264     0.08000
H2959       H  0.65478905  0.25669266  0.98885565     0.08000
H2960       H  0.67877785  0.24854400  0.02057202     0.04800
C2961       C  0.56923380  0.27550552  0.88121355    -0.21000
C2962       C  0.58972770  0.28163153  0.85803850    -0.07600
C2963       C  0.58173723  0.27875404  0.82539474     0.13300
C2964       C  0.55440757  0.26861710  0.81731017    -0.21100
C2965       C  0.53399048  0.26274402  0.84053769    -0.07600
C2966       C  0.54151376  0.26663932  0.87302929     0.13300
C2967       C  0.52085532  0.26064467  0.89955711    -0.24400
H2968       H  0.57483598  0.27797422  0.90606241     0.14500
H2969       H  0.54870524  0.26571147  0.79253583     0.14600
C2970       C  0.60157770  0.28616476  0.79854524    -0.24400
H2971       H  0.53066215  0.26395744  0.92331138     0.04800
H2972       H  0.51375822  0.23825428  0.89818829     0.08000
H2973       H  0.00109161  0.28442322  0.89261370     0.08000
H2974       H  0.62154110  0.27374514  0.80052409     0.08000
H2975       H  0.60638111  0.30920996  0.79915930     0.08000
H2976       H  0.59211230  0.28139351  0.77492097     0.04800
C2977       C  0.62021234  0.44124078  0.82888667    -0.21000
C2978       C  0.61403398  0.46225166  0.85140871    -0.07600
C2979       C  0.61722287  0.45572256  0.88413159     0.13300
C2980       C  0.62777157  0.42883694  0.89327404    -0.21100
C2981       C  0.63385431  0.40762317  0.87072147    -0.07600
C2982       C  0.62929133  0.41392185  0.83794424     0.13300
C2983       C  0.63458442  0.39241514  0.81189423    -0.24400
H2984       H  0.61761421  0.44621914  0.80391849     0.14500
H2985       H  0.63103548  0.42425068  0.91824009     0.14600
C2986       C  0.61013271  0.47725492  0.90955000    -0.24400
H2987       H  0.65705939  0.38517811  0.81245245     0.04800
H2988       H  0.63059748  0.40139439  0.78795128     0.08000
H2989       H  0.62004856  0.37407911  0.81464528     0.08000
H2990       H  0.58721581  0.48305803  0.90818561     0.08000
H2991       H  0.62328134  0.49651936  0.90645505     0.08000
H2992       H  0.61429475  0.46887474  0.93372819     0.04800
C2993       C  0.78075678  0.49079336  0.98715914    -0.21000
C2994       C  0.78424584  0.99849405  0.95642532    -0.07600
C2995       C  0.76582148  0.02040776  0.94563720     0.13300
C2996       C  0.74638344  0.03362051  0.96693850    -0.21100
C2997       C  0.74399632  0.02552442  0.99905298    -0.07600
C2998       C  0.76203832  0.00324786  0.00973408     0.13300
C2999       C  0.75916814  0.49316406  0.04191322    -0.24400
H3000       H  0.79377020  0.47335829  0.99565195     0.14500
H3001       H  0.73246705  0.05023260  0.95815709     0.14600
C3002       C  0.76568201  0.02936149  0.91133109    -0.24400
H3003       H  0.77512489  0.47620324  0.04655711     0.04800
H3004       H  0.74043508  0.98432272  0.04945421     0.08000
H3005       H  0.76329507  0.51085970  0.05883145     0.08000
H3006       H  0.76186278  0.01061144  0.89580391     0.08000
H3007       H  0.78633830  0.03923408  0.90508505     0.08000
H3008       H  0.74863467  0.04518318  0.90646442     0.04800
C3009       C  0.86167081  0.48028003  0.01504404    -0.21000
C3010       C  0.87714022  0.46093087  0.99606892    -0.07600
C3011       C  0.89360891  0.43958239  0.01074207     0.13300
C3012       C  0.89604821  0.43969279  0.04378536    -0.21100
C3013       C  0.88392081  0.46146263  0.06238124    -0.07600
C3014       C  0.86458963  0.48055422  0.04823716     0.13300
C3015       C  0.84770300  0.50157304  0.06782173    -0.24400
H3016       H  0.84742183  0.49537916  0.00382980     0.14500
H3017       H  0.91035115  0.42466271  0.05494739     0.14600
C3018       C  0.91033367  0.41789648  0.99182522    -0.24400
H3019       H  0.83322223  0.51451949  0.05279708     0.04800
H3020       H  0.86202269  0.51627916  0.08078987     0.08000
H3021       H  0.83447136  0.48997233  0.08528179     0.08000
H3022       H  0.92429364  0.42877054  0.97445987     0.08000
H3023       H  0.89561272  0.40337996  0.97914066     0.08000
H3024       H  0.92411885  0.40462146  0.00729050     0.04800
C3025       C  0.76436820  0.42061880  0.84404023    -0.21000
C3026       C  0.79028830  0.40587946  0.84505215    -0.07600
C3027       C  0.79103488  0.37608094  0.84218570     0.13300
C3028       C  0.76541865  0.36133915  0.84384318    -0.21100
C3029       C  0.73985021  0.37610976  0.84828053    -0.07600
C3030       C  0.73876573  0.40587296  0.84587820     0.13300
C3031       C  0.71110647  0.42208973  0.84871905    -0.24400
H3032       H  0.76429773  0.44359933  0.84583438     0.14500
H3033       H  0.76561788  0.33836374  0.84525878     0.14600
C3034       C  0.81871817  0.35975974  0.84153249    -0.24400
H3035       H  0.71440544  0.44535522  0.84689818     0.04800
H3036       H  0.70098183  0.41779632  0.87200412     0.08000
H3037       H  0.69648759  0.41554032  0.82933021     0.08000
H3038       H  0.83045567  0.36325373  0.86406164     0.08000
H3039       H  0.83192995  0.36690779  0.82125122     0.08000
H3040       H  0.81516926  0.33657533  0.83883130     0.04800
C3041       C  0.94256892  0.02814958  0.85564194    -0.21000
C3042       C  0.94226269  0.49890674  0.86205623    -0.07600
C3043       C  0.96633076  0.48084015  0.86061255     0.13300
C3044       C  0.99232371  0.49124411  0.84864662    -0.21100
C3045       C  0.99101536  0.02217337  0.83567806    -0.07600
C3046       C  0.96751068  0.03995129  0.84266941     0.13300
C3047       C  0.96900043  0.07143637  0.83700716    -0.24400
H3048       H  0.92473190  0.04187956  0.86149579     0.14500
H3049       H  0.50833508  0.47950592  0.83376502     0.14600
C3050       C  0.96480980  0.45090031  0.87282810    -0.24400
H3051       H  0.94884171  0.08234888  0.84375224     0.04800
H3052       H  0.97303724  0.07544948  0.81143876     0.08000
H3053       H  0.98656064  0.08074623  0.85122438     0.08000
H3054       H  0.94913242  0.43853260  0.85873347     0.08000
H3055       H  0.95815407  0.45117192  0.89815013     0.08000
H3056       H  0.98574952  0.43991297  0.87115179     0.04800
C3057       C  0.90024121  0.31698277  0.88166238    -0.21000
C3058       C  0.90678843  0.31207532  0.84930115    -0.07600
C3059       C  0.90563117  0.33548002  0.82840816     0.13300
C3060       C  0.89839908  0.36271407  0.84033592    -0.21100
C3061       C  0.89145235  0.36746413  0.87257518    -0.07600
C3062       C  0.89221042  0.34403592  0.89336600     0.13300
C3063       C  0.88533894  0.34754239  0.92811037    -0.24400
H3064       H  0.90120520  0.29937833  0.89806986     0.14500
H3065       H  0.89742807  0.38041422  0.82403922     0.14600
C3066       C  0.91256669  0.33211675  0.79365618    -0.24400
H3067       H  0.88864831  0.32751292  0.94138740     0.04800
H3068       H  0.86271056  0.35395165  0.93109819     0.08000
H3069       H  0.89939135  0.36393703  0.93875775     0.08000
H3070       H  0.89699054  0.31762223  0.78221203     0.08000
H3071       H  0.93443834  0.32335398  0.79084639     0.08000
H3072       H  0.91158022  0.35270545  0.78098631     0.04800
C3073       C  0.90481024  0.11922086  0.70753628    -0.21000
C3074       C  0.87505917  0.11495663  0.70898393    -0.07600
C3075       C  0.85987115  0.13112820  0.73230767     0.13300
C3076       C  0.87445944  0.15053867  0.75256040    -0.21100
C3077       C  0.90420520  0.15486170  0.75108177    -0.07600
C3078       C  0.91940741  0.13860615  0.72784330     0.13300
C3079       C  0.95119430  0.14138515  0.72383263    -0.24400
H3080       H  0.91700023  0.10711874  0.69028616     0.14500
H3081       H  0.86224061  0.16267065  0.76975550     0.14600
C3082       C  0.82808642  0.12830719  0.73642804    -0.24400
H3083       H  0.95958018  0.12688575  0.70512339     0.04800
H3084       H  0.96214286  0.13596321  0.74640672     0.08000
H3085       H  0.95656691  0.16337376  0.71671655     0.08000
H3086       H  0.82275914  0.10629066  0.74348798     0.08000
H3087       H  0.81704743  0.13380058  0.71393002     0.08000
H3088       H  0.81973568  0.14272792  0.75523074     0.04800
C3089       C  0.89396476  0.09269648  0.51372996    -0.21000
C3090       C  0.90177549  0.06807083  0.49679736    -0.07600
C3091       C  0.90985517  0.04337561  0.51410685     0.13300
C3092       C  0.90789529  0.04368888  0.54727066    -0.21100
C3093       C  0.89603800  0.06683740  0.56327506    -0.07600
C3094       C  0.89082177  0.09227162  0.54677767     0.13300
C3095       C  0.88091189  0.11858890  0.56414295    -0.24400
H3096       H  0.88927244  0.11211582  0.50103188     0.14500
H3097       H  0.91235349  0.02448829  0.56048143     0.14600
C3098       C  0.91979042  0.01617971  0.49843390    -0.24400
H3099       H  0.87843112  0.13686395  0.54781202     0.04800
H3100       H  0.89682489  0.12440700  0.58257908     0.08000
H3101       H  0.86003322  0.11491725  0.57571822     0.08000
H3102       H  0.93915592  0.02011551  0.48418268     0.08000
H3103       H  0.90260521  0.00740311  0.48317434     0.08000
H3104       H  0.92536354  0.99960298  0.51606262     0.04800
C3105       C  0.85071931  0.03901852  0.76281866    -0.21000
C3106       C  0.82999694  0.02517377  0.74438256    -0.07600
C3107       C  0.80865722  0.00909091  0.75936978     0.13300
C3108       C  0.81065335  0.00461450  0.79216235    -0.21100
C3109       C  0.83353254  0.01563356  0.80991526    -0.07600
C3110       C  0.85397363  0.53462936  0.79440545     0.13300
C3111       C  0.87943157  0.54606429  0.81186050    -0.24400
H3112       H  0.86616248  0.05264264  0.75135776     0.14500
H3113       H  0.79593411  0.99013480  0.80348203     0.14600
C3114       C  0.78509747  0.99502635  0.74077863    -0.24400
H3115       H  0.89234772  0.56048849  0.79690352     0.04800
H3116       H  0.89311522  0.52792935  0.81876724     0.08000
H3117       H  0.87244839  0.55800932  0.83331123     0.08000
H3118       H  0.79433864  0.98098182  0.72214229     0.08000
H3119       H  0.77137677  0.01136560  0.72951994     0.08000
H3120       H  0.77130012  0.98190770  0.75625213     0.04800
C3121       C  0.62159948  0.15991694  0.71373753    -0.21000
C3122       C  0.65143301  0.16066028  0.70932580    -0.07600
C3123       C  0.66792798  0.14046165  0.72662555     0.13300
C3124       C  0.65440992  0.12064689  0.74694653    -0.21100
C3125       C  0.62465125  0.12024097  0.75174161    -0.07600
C3126       C  0.60815969  0.14044118  0.73456245     0.13300
C3127       C  0.57615240  0.14140003  0.73736475    -0.24400
H3128       H  0.60852888  0.17520337  0.70120641     0.14500
H3129       H  0.66743099  0.10535001  0.75953949     0.14600
C3130       C  0.69995063  0.13921138  0.72385302    -0.24400
H3131       H  0.56658716  0.15772402  0.72164846     0.04800
H3132       H  0.56996566  0.14675799  0.76214477     0.08000
H3133       H  0.56706506  0.12052432  0.73046634     0.08000
H3134       H  0.70944237  0.15900486  0.73350617     0.08000
H3135       H  0.70616993  0.13629606  0.69858952     0.08000
H3136       H  0.70916435  0.12127359  0.73750009     0.04800
C3137       C  0.61685024  0.23406074  0.55197891    -0.21000
C3138       C  0.63069539  0.21048422  0.56480353    -0.07600
C3139       C  0.63778399  0.18720648  0.54512698     0.13300
C3140       C  0.63398163  0.18948640  0.51238385    -0.21100
C3141       C  0.62343305  0.21460597  0.49885884    -0.07600
C3142       C  0.61375744  0.23690136  0.51913618     0.13300
C3143       C  0.60085111  0.26411067  0.50689745    -0.24400
H3144       H  0.61172155  0.25192949  0.56736525     0.14500
H3145       H  0.64028061  0.17180463  0.49729673     0.14600
C3146       C  0.65113378  0.16051391  0.55806876    -0.24400
H3147       H  0.59419821  0.27858313  0.52649378     0.04800
H3148       H  0.58163141  0.25938062  0.49260379     0.08000
H3149       H  0.61667041  0.27567799  0.49234465     0.08000
H3150       H  0.65253223  0.16085872  0.58439853     0.08000
H3151       H  0.67294438  0.15785339  0.54821646     0.08000
H3152       H  0.63804726  0.14191580  0.55106128     0.04800
C3153       C  0.67407865  0.24539266  0.80181896    -0.21000
C3154       C  0.69688594  0.26072391  0.81425947    -0.07600
C3155       C  0.71952579  0.26883764  0.79429565     0.13300
C3156       C  0.71694109  0.26469262  0.76156299    -0.21100
C3157       C  0.69202898  0.25303224  0.74846731    -0.07600
C3158       C  0.67061789  0.24245602  0.76904522     0.13300
C3159       C  0.64373999  0.22855488  0.75716754    -0.24400
H3160       H  0.65694801  0.23901258  0.81751624     0.14500
H3161       H  0.73409123  0.27152302  0.74614971     0.14600
C3162       C  0.74582307  0.28326875  0.80698571    -0.24400
H3163       H  0.62986972  0.22135770  0.77690212     0.04800
H3164       H  0.64931820  0.20966257  0.74290538     0.08000
H3165       H  0.63110547  0.24372933  0.74276829     0.08000
H3166       H  0.74576915  0.28470234  0.83332474     0.08000
H3167       H  0.74726867  0.30503550  0.79716271     0.08000
H3168       H  0.76503693  0.27100042  0.79976703     0.04800
C3169       C  0.73561506  0.13967565  0.59117031    -0.21000
C3170       C  0.74895139  0.16536690  0.59817078    -0.07600
C3171       C  0.77890400  0.16747518  0.59827956     0.13300
C3172       C  0.79494547  0.14263145  0.59624198    -0.21100
C3173       C  0.78132643  0.11636278  0.59455469    -0.07600
C3174       C  0.75167909  0.11479514  0.58915353     0.13300
C3175       C  0.73659737  0.08688953  0.58494242    -0.24400
H3176       H  0.71252429  0.13870663  0.59049678     0.14500
H3177       H  0.81782082  0.14342200  0.59987920     0.14600
C3178       C  0.79384139  0.19526850  0.60403873    -0.24400
H3179       H  0.71337026  0.08983613  0.58090474     0.04800
H3180       H  0.73927320  0.07387825  0.60655733     0.08000
H3181       H  0.74551544  0.07546062  0.56407149     0.08000
H3182       H  0.78834138  0.20354019  0.62796445     0.08000
H3183       H  0.78729086  0.21078534  0.58567942     0.08000
H3184       H  0.81739311  0.19291469  0.60292536     0.04800
C3185       C  0.99392296  0.24968807  0.49819906    -0.21000
C3186       C  0.99022167  0.27933746  0.49989135    -0.07600
C3187       C  0.49854830  0.29092590  0.47081701     0.13300
C3188       C  0.51967652  0.27783036  0.45144011    -0.21100
C3189       C  0.53090514  0.25070276  0.45789664    -0.07600
C3190       C  0.52000406  0.23649499  0.48520781     0.13300
C3191       C  0.53043521  0.20743186  0.49469426    -0.24400
H3192       H  0.98094878  0.23643971  0.51332012     0.14500
H3193       H  0.52750515  0.28904547  0.43083926     0.14600
C3194       C  0.48727565  0.31949872  0.46072018    -0.24400
H3195       H  0.51988237  0.19980959  0.51664125     0.04800
H3196       H  0.55371424  0.20799628  0.49943256     0.08000
H3197       H  0.52568331  0.19184321  0.47555003     0.08000
H3198       H  0.49221782  0.33571656  0.47912118     0.08000
H3199       H  0.98473872  0.33539054  0.47165735     0.08000
H3200       H  0.49704066  0.32668028  0.43814133     0.04800
C3201       C  0.89373211  0.34288236  0.44908535    -0.21000
C3202       C  0.89986887  0.31652528  0.46309494    -0.07600
C3203       C  0.90740516  0.29314828  0.44314444     0.13300
C3204       C  0.90639621  0.29646663  0.41015723    -0.21100
C3205       C  0.89676595  0.32177776  0.39671621    -0.07600
C3206       C  0.89218627  0.34575003  0.41617325     0.13300
C3207       C  0.88360625  0.37403950  0.40258897    -0.24400
H3208       H  0.88928568  0.36133166  0.46382205     0.14500
H3209       H  0.90956740  0.27807181  0.39489227     0.14600
C3210       C  0.91569002  0.26433439  0.45575164    -0.24400
H3211       H  0.89895763  0.39051835  0.41048134     0.04800
H3212       H  0.86194563  0.37990797  0.41106931     0.08000
H3213       H  0.88349397  0.37375758  0.37620913     0.08000
H3214       H  0.89785616  0.25532342  0.46971206     0.08000
H3215       H  0.93506129  0.26608849  0.47069041     0.08000
H3216       H  0.92063850  0.24899558  0.43635672     0.04800
C3217       C  0.96756866  0.26552737  0.66466636    -0.21000
C3218       C  0.94407932  0.25625572  0.64670971    -0.07600
C3219       C  0.92383471  0.23815905  0.66066595     0.13300
C3220       C  0.92548488  0.23305150  0.69331169    -0.21100
C3221       C  0.94698103  0.24538613  0.71205198    -0.07600
C3222       C  0.96929100  0.26037819  0.69730873     0.13300
C3223       C  0.99382735  0.27265712  0.71596180    -0.24400
H3224       H  0.98319704  0.27921264  0.65364621     0.14500
H3225       H  0.90936449  0.22003624  0.70446851     0.14600
C3226       C  0.89937802  0.22588579  0.64190445    -0.24400
H3227       H  0.00825082  0.28528138  0.70068549     0.04800
H3228       H  0.00672089  0.25532213  0.72655132     0.08000
H3229       H  0.98561398  0.28683033  0.73507016     0.08000
H3230       H  0.90779430  0.21307024  0.62174975     0.08000
H3231       H  0.88562058  0.24313502  0.63266065     0.08000
H3232       H  0.88584786  0.21187936  0.65667636     0.04800
C3233       C  0.82991066  0.27720652  0.63431014    -0.21000
C3234       C  0.83567032  0.28129472  0.60176805    -0.07600
C3235       C  0.81285818  0.27926619  0.57986451     0.13300
C3236       C  0.78534981  0.27278466  0.59097231    -0.21100
C3237       C  0.77990988  0.26758485  0.62331893    -0.07600
C3238       C  0.80253734  0.27008830  0.64527908     0.13300
C3239       C  0.79788814  0.26587362  0.68035951    -0.24400
H3240       H  0.84711018  0.27913633  0.65138355     0.14500
H3241       H  0.76811483  0.27061646  0.57397202     0.14600
C3242       C  0.81709327  0.28430579  0.54485391    -0.24400
H3243       H  0.81742503  0.27060813  0.69430767     0.04800
H3244       H  0.79202035  0.24353012  0.68515035     0.08000
H3245       H  0.78063911  0.28022897  0.68886657     0.08000
H3246       H  0.83161417  0.26792383  0.53478267     0.08000
H3247       H  0.82623376  0.30572844  0.54109012     0.08000
H3248       H  0.79669272  0.28311811  0.53151182     0.04800
C3249       C  0.86678512  0.44136265  0.62921211    -0.21000
C3250       C  0.86656562  0.46258185  0.60597401    -0.07600
C3251       C  0.87279542  0.45460286  0.57400341     0.13300
C3252       C  0.88105086  0.42652340  0.56689370    -0.21100
C3253       C  0.88173498  0.40543298  0.59018595    -0.07600
C3254       C  0.87357689  0.41291056  0.62173247     0.13300
C3255       C  0.87264821  0.39140441  0.64808593    -0.24400
H3256       H  0.86128115  0.44703531  0.65344311     0.14500
H3257       H  0.88695632  0.42091776  0.54275536     0.14600
C3258       C  0.87127440  0.47537187  0.54696296    -0.24400
H3259       H  0.86612580  0.40113384  0.67107302     0.04800
H3260       H  0.89406840  0.38181574  0.65147016     0.08000
H3261       H  0.85687928  0.37464374  0.64228041     0.08000
H3262       H  0.87949534  0.98918415  0.54992931     0.08000
H3263       H  0.84306451  0.97675947  0.54661403     0.08000
H3264       H  0.87828259  0.46574109  0.52410154     0.04800
C3265       C  0.49447636  0.00304521  0.45767010    -0.21000
C3266       C  0.99211309  0.03347449  0.45745267    -0.07600
C3267       C  0.00379930  0.04651924  0.48525974     0.13300
C3268       C  0.53230120  0.03333828  0.49576997    -0.21100
C3269       C  0.53177365  0.00355388  0.49909257    -0.07600
C3270       C  0.51228887  0.98836407  0.47943713     0.13300
C3271       C  0.52651548  0.45950912  0.46223032    -0.24400
H3272       H  0.47935903  0.99099017  0.44361836     0.14500
H3273       H  0.54729380  0.04536453  0.51002285     0.14600
C3274       C  0.99583199  0.07635763  0.49498230    -0.24400
H3275       H  0.51511099  0.45281028  0.44032038     0.04800
H3276       H  0.54970663  0.45848364  0.45704210     0.08000
H3277       H  0.50473787  0.95050700  0.50658109     0.08000
H3278       H  0.97254742  0.07773948  0.49952322     0.08000
H3279       H  0.00195819  0.09143279  0.47602745     0.08000
H3280       H  0.00688016  0.08308590  0.51710866     0.04800
C3281       C  0.59366878  0.04340435  0.69495017    -0.21000
C3282       C  0.58094958  0.02483941  0.71669711    -0.07600
C3283       C  0.56395251  0.00241987  0.70567865     0.13300
C3284       C  0.56281224  0.99711653  0.67301706    -0.21100
C3285       C  0.57875064  0.01335927  0.65123203    -0.07600
C3286       C  0.59258943  0.03810353  0.66214182     0.13300
C3287       C  0.60656630  0.05864862  0.63974488    -0.24400
H3288       H  0.60493206  0.06189200  0.70380752     0.14500
H3289       H  0.55152011  0.47912856  0.66307817     0.14600
C3290       C  0.54737077  0.98344875  0.72762910    -0.24400
H3291       H  0.61556017  0.07720693  0.65263732     0.04800
H3292       H  0.59050272  0.06663853  0.62256724     0.08000
H3293       H  0.62423574  0.04832331  0.62653592     0.08000
H3294       H  0.52435261  0.98463313  0.72158222     0.08000
H3295       H  0.54887131  0.49079585  0.75113722     0.08000
H3296       H  0.55398915  0.46221553  0.72330409     0.04800
C3297       C  0.61384053  0.49086914  0.40724629    -0.21000
C3298       C  0.62719208  0.46834865  0.39137259    -0.07600
C3299       C  0.63453040  0.44370221  0.40835054     0.13300
C3300       C  0.63112939  0.44334855  0.44138269    -0.21100
C3301       C  0.62125174  0.46741075  0.45800831    -0.07600
C3302       C  0.61160026  0.49129089  0.44039312     0.13300
C3303       C  0.60405658  0.02079308  0.45721548    -0.24400
H3304       H  0.60876139  0.50992579  0.39398546     0.14500
H3305       H  0.63754039  0.42453209  0.45431183     0.14600
C3306       C  0.64834286  0.41846457  0.39246478    -0.24400
H3307       H  0.59865239  0.03749353  0.43965933     0.04800
H3308       H  0.62183229  0.02900769  0.47201509     0.08000
H3309       H  0.58079075  0.51260967  0.47002440     0.08000
H3310       H  0.67000844  0.41529146  0.40245115     0.08000
H3311       H  0.65015800  0.42109788  0.36636372     0.08000
H3312       H  0.63544083  0.39920264  0.39696174     0.04800
C3313       C  0.51153517  0.41506741  0.61057624    -0.21000
C3314       C  0.53750897  0.40122237  0.60548985    -0.07600
C3315       C  0.53955701  0.37143412  0.60730934     0.13300
C3316       C  0.51449694  0.35582048  0.60963917    -0.21100
C3317       C  0.98806015  0.37301380  0.60966102    -0.07600
C3318       C  0.98650097  0.40285760  0.61016741     0.13300
C3319       C  0.95834049  0.41836955  0.60989467    -0.24400
H3320       H  0.51057254  0.43805558  0.60970013     0.14500
H3321       H  0.51525856  0.33286707  0.60759809     0.14600
C3322       C  0.56757288  0.35609222  0.60333917    -0.24400
H3323       H  0.96121471  0.44174746  0.61079738     0.04800
H3324       H  0.94547823  0.41205964  0.63080222     0.08000
H3325       H  0.94652999  0.41319413  0.58781097     0.08000
H3326       H  0.58271548  0.36313304  0.62203690     0.08000
H3327       H  0.57653628  0.36068681  0.57957613     0.08000
H3328       H  0.56511201  0.33273087  0.60527905     0.04800
C3329       C  0.70752576  0.00042496  0.57681201    -0.21000
C3330       C  0.68741462  0.49746371  0.59869323    -0.07600
C3331       C  0.69515434  0.50190962  0.63110452     0.13300
C3332       C  0.72117502  0.01341227  0.63987659    -0.21100
C3333       C  0.74280036  0.01422086  0.61696242    -0.07600
C3334       C  0.73580658  0.00731947  0.58490740     0.13300
C3335       C  0.75770208  0.00768955  0.55868616    -0.24400
H3336       H  0.70275498  0.49747524  0.55068984     0.14500
H3337       H  0.72635509  0.01882029  0.66426572     0.14600
C3338       C  0.67458434  0.49680761  0.65799436    -0.24400
H3339       H  0.74815434  0.00270230  0.53515975     0.04800
H3340       H  0.77443366  0.99150514  0.56326809     0.08000
H3341       H  0.76748700  0.02900042  0.55707238     0.08000
H3342       H  0.66920503  0.47392807  0.65918176     0.08000
H3343       H  0.65488355  0.50944022  0.65457422     0.08000
H3344       H  0.68380304  0.50287932  0.68136808     0.04800
C3345       C  0.64736269  0.36664892  0.61286072    -0.21000
C3346       C  0.63861985  0.36953208  0.58088035    -0.07600
C3347       C  0.63693758  0.34469475  0.56193688     0.13300
C3348       C  0.64458171  0.31819685  0.57509935    -0.21100
C3349       C  0.65297028  0.31535532  0.60717913    -0.07600
C3350       C  0.65409837  0.34006165  0.62627317     0.13300
C3351       C  0.66299473  0.33868871  0.66062503    -0.24400
H3352       H  0.64815299  0.38533903  0.62794606     0.14500
H3353       H  0.64371701  0.29938532  0.56019193     0.14600
C3354       C  0.62754109  0.34592520  0.52774562    -0.24400
H3355       H  0.66360635  0.36007729  0.67183197     0.04800
H3356       H  0.68461376  0.32915387  0.66250517     0.08000
H3357       H  0.64758323  0.32566176  0.67415057     0.08000
H3358       H  0.64117357  0.36099077  0.51450011     0.08000
H3359       H  0.60494536  0.35284514  0.52631129     0.08000
H3360       H  0.62918103  0.32486554  0.51591196     0.04800
O3361       O  0.56103186  0.96369494  0.51582246    -0.82500
C3362       C  0.65700986  0.98956666  0.59003048     0.96800
O3363       O  0.64609020  0.99699617  0.56382778    -0.71600
O3364       O  0.61500421  0.98922488  0.51054437    -0.75200
Al3365     Al  0.60577213  0.99733342  0.55433120     1.49000
C3366       C  0.61769079  0.96676386  0.49394318     0.92100
O3367       O  0.60747054  0.90289360  0.55254729    -0.81500
O3368       O  0.58339058  0.92071394  0.60667894    -0.75000
Al3369     Al  0.58608376  0.93656510  0.53723077     1.90100
O3370       O  0.63833988  0.92204251  0.58500885    -0.74100
O3371       O  0.58727893  0.97243981  0.62250224    -0.73900
O3372       O  0.64343209  0.97352589  0.60823167    -0.79600
O3373       O  0.59776831  0.51039938  0.59576420    -0.77800
O3374       O  0.60154193  0.96096694  0.56435346    -1.13900
O3375       O  0.56679922  0.50204515  0.54194333    -0.73100
C3376       C  0.55352760  0.98921738  0.52079235     0.97600
C3377       C  0.62861000  0.90027355  0.57139409     0.94000
Al3378     Al  0.61231431  0.94843076  0.60229315     1.55600
O3379       O  0.61458094  0.94261898  0.50649704    -0.77800
C3380       C  0.58698755  0.99896405  0.62130351     0.98200
C3381       C  0.55969206  0.91933485  0.59286835     0.93000
O3382       O  0.55596150  0.92949379  0.56551934    -0.83100
O3383       O  0.96008460  0.81405578  0.51937852    -0.82500
C3384       C  0.86613241  0.78672929  0.59342746     0.96800
O3385       O  0.87577051  0.78083406  0.56604333    -0.71600
O3386       O  0.90577700  0.79009515  0.51273199    -0.75200
Al3387     Al  0.91559577  0.77871377  0.55513534     1.49000
C3388       C  0.90239123  0.81391291  0.49949729     0.92100
O3389       O  0.91538279  0.87192090  0.56318572    -0.81500
O3390       O  0.94374619  0.84962310  0.61532480    -0.75000
Al3391     Al  0.93605574  0.83987013  0.54411505     1.90100
O3392       O  0.88780607  0.85224402  0.59867328    -0.74100
O3393       O  0.93927639  0.79592063  0.62424916    -0.73900
O3394       O  0.88188068  0.79861322  0.61374589    -0.79600
O3395       O  0.92489830  0.76003661  0.59497986    -0.77800
O3396       O  0.92170180  0.81387721  0.56941369    -1.13900
O3397       O  0.95480528  0.77266924  0.54172676    -0.73100
C3398       C  0.96761502  0.78827214  0.52179291     0.97600
C3399       C  0.89560621  0.87397706  0.58375222     0.94000
Al3400     Al  0.91382609  0.82305760  0.60956294     1.55600
O3401       O  0.90609937  0.83652840  0.51502458    -0.77800
C3402       C  0.93688974  0.76970352  0.61977612     0.98200
C3403       C  0.96579086  0.85337882  0.59904890     0.93000
O3404       O  0.96748401  0.84512066  0.57066314    -0.83100
O3405       O  0.72029811  0.68473933  0.63623425    -0.82500
C3406       C  0.66369083  0.78954894  0.62067793     0.96800
O3407       O  0.67691562  0.77433840  0.60097804    -0.71600
O3408       O  0.73032509  0.76682104  0.61937366    -0.75200
Al3409     Al  0.70136556  0.74239899  0.60448672     1.49000
C3410       C  0.75183706  0.75657139  0.63337048     0.92100
O3411       O  0.71489575  0.74033820  0.69966622    -0.81500
O3412       O  0.64771597  0.70069814  0.66937816    -0.75000
Al3413     Al  0.71642707  0.71374149  0.66687475     1.90100
O3414       O  0.66841341  0.74724724  0.70079155    -0.74100
O3415       O  0.63794647  0.73203724  0.61733911    -0.73900
O3416       O  0.65892920  0.78005903  0.64835670    -0.79600
O3417       O  0.67429831  0.71849749  0.58748364    -0.77800
O3418       O  0.69123442  0.73214551  0.64351541    -1.13900
O3419       O  0.72837122  0.71307135  0.59633683    -0.73100
C3420       C  0.73057820  0.68923858  0.60915461     0.97600
C3421       C  0.69254779  0.74695294  0.71442108     0.94000
Al3422     Al  0.65618708  0.73960524  0.65781887     1.55600
O3423       O  0.74924692  0.73466715  0.65070446    -0.77800
C3424       C  0.64795366  0.72064071  0.59227338     0.98200
C3425       C  0.66291232  0.68433108  0.68622877     0.93000
O3426       O  0.68940998  0.68914815  0.68830886    -0.83100
O3427       O  0.80409693  0.59745016  0.63541754    -0.82500
C3428       C  0.85917814  0.98949798  0.61659565     0.96800
O3429       O  0.84788824  0.50858986  0.59541011    -0.71600
O3430       O  0.79426222  0.51706126  0.61079894    -0.75200
Al3431     Al  0.82426233  0.54143114  0.59933102     1.49000
C3432       C  0.77231643  0.52635207  0.62471336     0.92100
O3433       O  0.80826083  0.53830539  0.69471979    -0.81500
O3434       O  0.87597144  0.57993421  0.66774595    -0.75000
Al3435     Al  0.80727134  0.56680638  0.66365055     1.90100
O3436       O  0.85486280  0.53297260  0.69596041    -0.74100
O3437       O  0.88745901  0.54987617  0.61490605    -0.73900
O3438       O  0.86410467  0.50177591  0.64331421    -0.79600
O3439       O  0.85246047  0.56542082  0.58478800    -0.77800
O3440       O  0.83309094  0.54978743  0.63943303    -1.13900
O3441       O  0.79846172  0.57192473  0.59227430    -0.73100
C3442       C  0.79568349  0.59488812  0.60716747     0.97600
C3443       C  0.83076235  0.53189133  0.70937768     0.94000
Al3444     Al  0.86772865  0.54159313  0.65422957     1.55600
O3445       O  0.77443326  0.54688264  0.64450430    -0.77800
C3446       C  0.87858955  0.56282134  0.59046630     0.98200
C3447       C  0.86077984  0.59508192  0.68616551     0.93000
O3448       O  0.83420021  0.59021949  0.68794306    -0.83100
O3449       O  0.80914927  0.92856270  0.88788986    -0.82500
C3450       C  0.91198473  0.98702606  0.86981707     0.96800
O3451       O  0.89985444  0.97007875  0.85095897    -0.71600
O3452       O  0.89103280  0.91731397  0.86843831    -0.75200
Al3453     Al  0.86702426  0.94648683  0.85284578     1.49000
C3454       C  0.88044162  0.89586538  0.88156806     0.92100
O3455       O  0.86807340  0.93637678  0.94676184    -0.81500
O3456       O  0.82061982  0.50015084  0.91400710    -0.75000
Al3457     Al  0.83920642  0.93287064  0.91654299     1.90100
O3458       O  0.86850024  0.98327075  0.94744833    -0.74100
O3459       O  0.85182035  0.51119974  0.86251571    -0.73900
O3460       O  0.89983228  0.99484613  0.89523347    -0.79600
O3461       O  0.84439096  0.97294587  0.83293531    -0.77800
O3462       O  0.85568040  0.95790858  0.89124703    -1.13900
O3463       O  0.83601732  0.92099550  0.84570230    -0.73100
C3464       C  0.81229431  0.91984918  0.85972432     0.97600
C3465       C  0.87184108  0.95952969  0.96133417     0.94000
Al3466     Al  0.85968197  0.99384276  0.90408975     1.55600
O3467       O  0.85887350  0.89907215  0.89949003    -0.77800
C3468       C  0.84264944  0.99915098  0.83747440     0.98200
C3469       C  0.80707302  0.98482397  0.93573028     0.93000
O3470       O  0.81489763  0.95943878  0.94054857    -0.83100
O3471       O  0.71792015  0.85213091  0.89228430    -0.82500
C3472       C  0.61879476  0.78834238  0.86871135     0.96800
O3473       O  0.63321365  0.80245277  0.84916128    -0.71600
O3474       O  0.63635960  0.85576235  0.86844101    -0.75200
Al3475     Al  0.66374689  0.82899051  0.85458638     1.49000
C3476       C  0.64410596  0.87810066  0.88255824     0.92100
O3477       O  0.65889241  0.83878415  0.95033379    -0.81500
O3478       O  0.70866027  0.77856580  0.91753813    -0.75000
Al3479     Al  0.68751137  0.84475409  0.91993368     1.90100
O3480       O  0.66022341  0.79228605  0.94899485    -0.74100
O3481       O  0.67902812  0.76669842  0.86496703    -0.73900
O3482       O  0.62892158  0.78309409  0.89600413    -0.79600
O3483       O  0.69060463  0.80448706  0.83773199    -0.77800
O3484       O  0.67328380  0.81892349  0.89378159    -1.13900
O3485       O  0.69185112  0.85750949  0.84945472    -0.73100
C3486       C  0.71485225  0.86072076  0.86424826     0.97600
C3487       C  0.65751595  0.81521969  0.96444688     0.94000
Al3488     Al  0.66922623  0.78306566  0.90584715     1.55600
O3489       O  0.66458741  0.87686809  0.90259971    -0.77800
C3490       C  0.69091538  0.77812973  0.84123361     0.98200
C3491       C  0.72158405  0.79332907  0.93821909     0.93000
O3492       O  0.71361992  0.81891071  0.94266951    -0.83100
O3493       O  0.58547415  0.60106260  0.78330466    -0.82500
C3494       C  0.60462208  0.99046405  0.84296425     0.96800
O3495       O  0.62204548  0.50549529  0.82302332    -0.71600
O3496       O  0.60194723  0.52296175  0.76618628    -0.75200
Al3497     Al  0.61882127  0.54206361  0.80137406     1.49000
C3498       C  0.58269982  0.53312794  0.74843299     0.92100
O3499       O  0.52815230  0.54509931  0.80416410    -0.81500
O3500       O  0.57138833  0.57874350  0.87267761    -0.75000
Al3501     Al  0.55926604  0.57133526  0.79608432     1.90100
O3502       O  0.53771818  0.53512858  0.85359016    -0.74100
O3503       O  0.61425339  0.54386788  0.87342639    -0.73900
O3504       O  0.58222271  0.50169846  0.84990592    -0.79600
O3505       O  0.63967710  0.56119607  0.83443932    -0.77800
O3506       O  0.58495268  0.55143486  0.81835219    -1.13900
O3507       O  0.62370946  0.57567672  0.77566814    -0.73100
C3508       C  0.60992843  0.59836984  0.77084112     0.97600
C3509       C  0.52082201  0.53474525  0.83059058     0.94000
Al3510     Al  0.57712011  0.54089277  0.85848135     1.55600
O3511       O  0.56580855  0.55217686  0.75772472    -0.77800
C3512       C  0.63599773  0.55634351  0.86359540     0.98200
C3513       C  0.55656925  0.59731589  0.85899478     0.93000
O3514       O  0.54873428  0.59464429  0.83049249    -0.83100
O3515       O  0.94288820  0.68254621  0.77134731    -0.82500
C3516       C  0.91691197  0.78236842  0.83987769     0.96800
O3517       O  0.91303700  0.77252333  0.81208624    -0.71600
O3518       O  0.92241590  0.73919910  0.76049309    -0.75200
Al3519     Al  0.90930253  0.73236417  0.80269944     1.49000
C3520       C  0.94663337  0.73955344  0.74727831     0.92100
O3521       O  0.00256674  0.72692827  0.81362012    -0.81500
O3522       O  0.97784231  0.70340736  0.86640710    -0.75000
Al3523     Al  0.96986791  0.70646030  0.79489516     1.90100
O3524       O  0.98255909  0.75744380  0.84658860    -0.74100
O3525       O  0.92353196  0.70987294  0.87271011    -0.73900
O3526       O  0.92832202  0.76680435  0.86064972    -0.79600
O3527       O  0.88914776  0.72628230  0.84236602    -0.77800
O3528       O  0.94382713  0.72428271  0.81821958    -1.13900
O3529       O  0.90094616  0.69362601  0.79075957    -0.73100
C3530       C  0.91620219  0.67808325  0.77275553     0.97600
C3531       C  0.50436651  0.75103621  0.83312330     0.94000
Al3532     Al  0.95209622  0.73356777  0.85814373     1.55600
O3533       O  0.96891414  0.73402112  0.76278504    -0.77800
C3534       C  0.89758562  0.71464153  0.86778589     0.98200
C3535       C  0.98262577  0.68048133  0.85212799     0.93000
O3536       O  0.97361807  0.67635232  0.82430446    -0.83100
O3537       O  0.81603153  0.71654039  0.01887140    -0.82500
C3538       C  0.91293870  0.74265381  0.09081634     0.96800
O3539       O  0.90204021  0.74888660  0.06421812    -0.71600
O3540       O  0.87011185  0.74025860  0.01181963    -0.75200
Al3541     Al  0.86176200  0.75031729  0.05526377     1.49000
C3542       C  0.87251481  0.71688036  0.99695537     0.92100
O3543       O  0.86152265  0.65641364  0.05837969    -0.81500
O3544       O  0.83649434  0.67675045  0.11182234    -0.75000
Al3545     Al  0.84068239  0.68962440  0.04154604     1.90100
O3546       O  0.89201321  0.67588701  0.09117372    -0.74100
O3547       O  0.84185927  0.72946271  0.12434106    -0.73900
O3548       O  0.89865894  0.72860379  0.11061986    -0.79600
O3549       O  0.85331572  0.76701860  0.09660276    -0.77800
O3550       O  0.85647510  0.71467351  0.06746422    -1.13900
O3551       O  0.82226269  0.75653628  0.04422772    -0.73100
C3552       C  0.80879508  0.74225650  0.02355421     0.97600
C3553       C  0.88246499  0.65409569  0.07752379     0.94000
Al3554     Al  0.86649837  0.70380322  0.10619800     1.55600
O3555       O  0.86955842  0.69370079  0.01139809    -0.77800
C3556       C  0.84255376  0.75583487  0.12117029     0.98200
C3557       C  0.81324667  0.67453272  0.09705932     0.93000
O3558       O  0.81024886  0.68415692  0.06944156    -0.83100
O3559       O  0.56364762  0.85081652  0.13833553    -0.82500
C3560       C  0.61444985  0.74376875  0.11809373     0.96800
O3561       O  0.60291910  0.76014331  0.09828708    -0.71600
O3562       O  0.54890636  0.77098949  0.11302303    -0.75200
Al3563     Al  0.58058855  0.79390078  0.10213636     1.49000
C3564       C  0.52751553  0.78137856  0.12729231     0.92100
O3565       O  0.56328908  0.79081396  0.19626994    -0.81500
O3566       O  0.63348202  0.83007565  0.17143459    -0.75000
Al3567     Al  0.56438982  0.81974549  0.16613130     1.90100
O3568       O  0.60966305  0.78395593  0.19974333    -0.74100
O3569       O  0.64413860  0.79915598  0.11830796    -0.73900
O3570       O  0.61887557  0.75241983  0.14627569    -0.79600
O3571       O  0.61002559  0.81669402  0.08825256    -0.77800
O3572       O  0.58954853  0.80156917  0.14232339    -1.13900
O3573       O  0.55648283  0.82556358  0.09529615    -0.73100
C3574       C  0.55476335  0.84861379  0.11026051     0.97600
C3575       C  0.58496271  0.78382242  0.21204104     0.94000
Al3576     Al  0.62370945  0.79197780  0.15768309     1.55600
O3577       O  0.53076842  0.80216843  0.14641910    -0.77800
C3578       C  0.63591948  0.81188617  0.09341133     0.98200
C3579       C  0.61844608  0.84548861  0.18974850     0.93000
O3580       O  0.59184522  0.84111228  0.19116862    -0.83100
O3581       O  0.71466777  0.56731744  0.01336863    -0.82500
C3582       C  0.61716754  0.54400700  0.08482300     0.96800
O3583       O  0.62753106  0.53776364  0.05785234    -0.71600
O3584       O  0.66062876  0.54463983  0.00536684    -0.75200
Al3585     Al  0.66800047  0.53520240  0.04957963     1.49000
C3586       C  0.65838170  0.56807075  0.99062997     0.92100
O3587       O  0.66995826  0.62906962  0.05190993    -0.81500
O3588       O  0.69366377  0.60956861  0.10557354    -0.75000
Al3589     Al  0.69039851  0.59523784  0.03559580     1.90100
O3590       O  0.63862095  0.61045394  0.08407660    -0.74100
O3591       O  0.68827499  0.55703235  0.11880533    -0.73900
O3592       O  0.63162786  0.55820001  0.10449104    -0.79600
O3593       O  0.67511223  0.51917327  0.09184622    -0.77800
O3594       O  0.67393268  0.57093522  0.06150655    -1.13900
O3595       O  0.70763890  0.52794668  0.03938858    -0.73100
C3596       C  0.72139667  0.54157433  0.01854140     0.97600
C3597       C  0.64864682  0.63195625  0.07044436     0.94000
Al3598     Al  0.66378150  0.58269396  0.10000175     1.55600
O3599       O  0.66164099  0.59126407  0.00513846    -0.77800
C3600       C  0.68588931  0.53065097  0.11652073     0.98200
C3601       C  0.71723372  0.61110636  0.09147540     0.93000
O3602       O  0.72074079  0.60076549  0.06407193    -0.83100
O3603       O  0.97111824  0.93539650  0.13612901    -0.82500
C3604       C  0.91729114  0.54028448  0.11569245     0.96800
O3605       O  0.93126425  0.52468397  0.09711383    -0.71600
O3606       O  0.98408891  0.51684928  0.11581890    -0.75200
Al3607     Al  0.95397512  0.99222135  0.10024268     1.49000
C3608       C  0.50561578  0.50622363  0.12854548     0.92100
O3609       O  0.96783063  0.99550716  0.19458020    -0.81500
O3610       O  0.90019577  0.95310466  0.16745259    -0.75000
Al3611     Al  0.96870887  0.96635115  0.16437745     1.90100
O3612       O  0.92026676  0.50246527  0.19729937    -0.74100
O3613       O  0.88987773  0.98206729  0.11358685    -0.73900
O3614       O  0.91068522  0.53124634  0.14303723    -0.79600
O3615       O  0.92621105  0.96909750  0.08371125    -0.77800
O3616       O  0.94359274  0.98358892  0.13967440    -1.13900
O3617       O  0.97926294  0.96131329  0.09399456    -0.73100
C3618       C  0.98098616  0.93820314  0.10853493     0.97600
C3619       C  0.94449994  0.50531905  0.21042292     0.94000
Al3620     Al  0.90854060  0.99151185  0.15352535     1.55600
O3621       O  0.50165708  0.98261212  0.14657778    -0.77800
C3622       C  0.89987139  0.97044165  0.08866977     0.98200
C3623       C  0.91501870  0.93868113  0.18680261     0.93000
O3624       O  0.94141993  0.94404629  0.18888074    -0.83100
O3625       O  0.97040812  0.60818725  0.39140397    -0.82500
C3626       C  0.86909006  0.54822890  0.36833965     0.96800
O3627       O  0.88228624  0.56439943  0.34991432    -0.71600
O3628       O  0.88851821  0.61710750  0.37101581    -0.75200
Al3629     Al  0.91386622  0.58911817  0.35493366     1.49000
C3630       C  0.89833480  0.63865408  0.38516815     0.92100
O3631       O  0.91197892  0.59664386  0.45076383    -0.81500
O3632       O  0.95986311  0.53541155  0.41604497    -0.75000
Al3633     Al  0.94038900  0.60195602  0.41988386     1.90100
O3634       O  0.91107171  0.54999263  0.44760601    -0.74100
O3635       O  0.92946147  0.52558240  0.36312804    -0.73900
O3636       O  0.88005200  0.54111809  0.39465498    -0.79600
O3637       O  0.93825612  0.56384247  0.33536466    -0.77800
O3638       O  0.92452248  0.57726203  0.39332425    -1.13900
O3639       O  0.94325118  0.61590186  0.34972447    -0.73100
C3640       C  0.96688925  0.61727568  0.36357640     0.97600
C3641       C  0.90853312  0.57269696  0.46364108     0.94000
Al3642     Al  0.92023912  0.54107770  0.40440721     1.55600
O3643       O  0.91931294  0.63560495  0.40413133    -0.77800
C3644       C  0.93874433  0.53741021  0.33830375     0.98200
C3645       C  0.97316898  0.54961731  0.43696714     0.93000
O3646       O  0.96556328  0.57512034  0.44183641    -0.83100
O3647       O  0.55909147  0.68243960  0.39170239    -0.82500
C3648       C  0.65864809  0.74445337  0.36989606     0.96800
O3649       O  0.64457263  0.73006298  0.35012065    -0.71600
O3650       O  0.64028937  0.67694302  0.36828441    -0.75200
Al3651     Al  0.61362758  0.70428777  0.35449196     1.49000
C3652       C  0.63211537  0.65508176  0.38268423     0.92100
O3653       O  0.61807566  0.69429220  0.44961621    -0.81500
O3654       O  0.56788336  0.75528307  0.41863996    -0.75000
Al3655     Al  0.58929694  0.68896688  0.41943295     1.90100
O3656       O  0.61695522  0.74091076  0.44949826    -0.74100
O3657       O  0.59832694  0.76716067  0.36553201    -0.73900
O3658       O  0.64802360  0.75056035  0.39678398    -0.79600
O3659       O  0.58777006  0.72936418  0.33729795    -0.77800
O3660       O  0.60375802  0.71468476  0.39372612    -1.13900
O3661       O  0.58484718  0.67647176  0.34862309    -0.73100
C3662       C  0.56173382  0.67419254  0.36338666     0.97600
C3663       C  0.62046832  0.71771678  0.46405337     0.94000
Al3664     Al  0.60770086  0.75057706  0.40649931     1.55600
O3665       O  0.61134070  0.65671409  0.40206674    -0.77800
C3666       C  0.58814144  0.75578661  0.34061973     0.98200
C3667       C  0.55499971  0.73988019  0.43871795     0.93000
O3668       O  0.56359108  0.71457105  0.44253800    -0.83100
O3669       O  0.83249372  0.84856603  0.26991748    -0.82500
C3670       C  0.86060108  0.75106183  0.34138476     0.96800
O3671       O  0.86583571  0.76119897  0.31415419    -0.71600
O3672       O  0.85540861  0.79247208  0.26183901    -0.75200
Al3673     Al  0.86706131  0.80143751  0.30426293     1.49000
C3674       C  0.83140577  0.79020376  0.24822819     0.92100
O3675       O  0.77317561  0.80415006  0.31089010    -0.81500
O3676       O  0.79465777  0.82750922  0.36407077    -0.75000
Al3677     Al  0.80595834  0.82457611  0.29347756     1.90100
O3678       O  0.79268087  0.77295582  0.34269753    -0.74100
O3679       O  0.84821923  0.82243500  0.37422307    -0.73900
O3680       O  0.84644768  0.76569515  0.36099394    -0.79600
O3681       O  0.88494171  0.80969461  0.34482559    -0.77800
O3682       O  0.83163613  0.80777077  0.31795449    -1.13900
O3683       O  0.87385602  0.84053222  0.29170120    -0.73100
C3684       C  0.85875960  0.85454064  0.27215481     0.97600
C3685       C  0.77081462  0.78268515  0.32890388     0.94000
Al3686     Al  0.82155719  0.79791277  0.35707321     1.55600
O3687       O  0.80849141  0.79624530  0.26232642    -0.77800
C3688       C  0.87458770  0.81992110  0.37029973     0.98200
C3689       C  0.79197199  0.85101830  0.35048699     0.93000
O3690       O  0.80136007  0.85486326  0.32277279    -0.83100
O3691       O  0.69608812  0.93236558  0.28432815    -0.82500
C3692       C  0.67121965  0.54404262  0.33917849     0.96800
O3693       O  0.65500074  0.52828590  0.32251081    -0.71600
O3694       O  0.67252595  0.50948237  0.26491119    -0.75200
Al3695     Al  0.65769136  0.98904411  0.30190349     1.49000
C3696       C  0.69182154  0.50078793  0.24621852     0.92100
O3697       O  0.74801486  0.99494102  0.30029050    -0.81500
O3698       O  0.70972489  0.95905637  0.37161591    -0.75000
Al3699     Al  0.71964016  0.96524084  0.29456748     1.90100
O3700       O  0.73922635  0.00339971  0.35008642    -0.74100
O3701       O  0.66498794  0.99132072  0.37369024    -0.73900
O3702       O  0.69470081  0.53468815  0.34927289    -0.79600
O3703       O  0.63955286  0.97030922  0.33701335    -0.77800
O3704       O  0.69279174  0.98330688  0.31736348    -1.13900
O3705       O  0.65511570  0.95383910  0.27926032    -0.73100
C3706       C  0.67064722  0.93235378  0.27405314     0.97600
C3707       C  0.75779082  0.50683669  0.32768525     0.94000
Al3708     Al  0.70097367  0.99577226  0.35668531     1.55600
O3709       O  0.70978501  0.98176310  0.25564010    -0.77800
C3710       C  0.64380977  0.97701276  0.36565690     0.98200
C3711       C  0.72769846  0.94294436  0.35852657     0.93000
O3712       O  0.73422164  0.94515065  0.32956548    -0.83100
C3713       C  0.78915932  0.89945503  0.37120263    -0.21000
C3714       C  0.77582598  0.87341261  0.36609234    -0.07600
C3715       C  0.74628525  0.87041130  0.37154053     0.13300
C3716       C  0.72995934  0.89479534  0.37709904    -0.21100
C3717       C  0.74283801  0.92143807  0.37634083    -0.07600
C3718       C  0.77281570  0.92363571  0.37710209     0.13300
C3719       C  0.78764537  0.95183498  0.37978568    -0.24400
H3720       H  0.81203661  0.90130473  0.36816292     0.14500
H3721       H  0.70691629  0.89339045  0.37663603     0.14600
C3722       C  0.73149338  0.84227508  0.36766339    -0.24400
H3723       H  0.80346166  0.95109195  0.39939990     0.04800
H3724       H  0.77242798  0.96928648  0.38516220     0.08000
H3725       H  0.79885195  0.95660129  0.35721460     0.08000
H3726       H  0.74067288  0.82661360  0.38444029     0.08000
H3727       H  0.73414993  0.83448830  0.34293452     0.08000
H3728       H  0.70827774  0.84397999  0.37252617     0.04800
C3729       C  0.69094076  0.76522429  0.32935353    -0.21000
C3730       C  0.68747479  0.75433115  0.36016754    -0.07600
C3731       C  0.71180521  0.75089160  0.37949641     0.13300
C3732       C  0.73868081  0.75923730  0.36797870    -0.21100
C3733       C  0.74208077  0.77132049  0.33760652    -0.07600
C3734       C  0.71765204  0.77424925  0.31803897     0.13300
C3735       C  0.71942675  0.78641152  0.28505647    -0.24400
H3736       H  0.67245977  0.76694753  0.31401497     0.14500
H3737       H  0.75711570  0.75692519  0.38329222     0.14600
C3738       C  0.70967525  0.73748414  0.41180567    -0.24400
H3739       H  0.69864610  0.78524595  0.27244958     0.04800
H3740       H  0.73533827  0.77434182  0.27084793     0.08000
H3741       H  0.72551319  0.80911972  0.28623739     0.08000
H3742       H  0.70027810  0.71596363  0.40954959     0.08000
H3743       H  0.69605596  0.75075108  0.42756217     0.08000
H3744       H  0.73089876  0.73531850  0.42327225     0.04800
C3745       C  0.66399777  0.58014561  0.38206438    -0.21000
C3746       C  0.66199654  0.57298504  0.34953665    -0.07600
C3747       C  0.65145788  0.59346257  0.32817672     0.13300
C3748       C  0.64282703  0.62024860  0.33982492    -0.21100
C3749       C  0.64382879  0.62703891  0.37245554    -0.07600
C3750       C  0.65475533  0.60676880  0.39379176     0.13300
C3751       C  0.65730231  0.61346360  0.42868943    -0.24400
H3752       H  0.67233752  0.56456069  0.39851758     0.14500
H3753       H  0.63450530  0.63583581  0.32336212     0.14600
C3754       C  0.64995807  0.58739361  0.29304655    -0.24400
H3755       H  0.66708488  0.59560736  0.44198221     0.04800
H3756       H  0.63587832  0.61767347  0.43888167     0.08000
H3757       H  0.67087026  0.63250330  0.43210954     0.08000
H3758       H  0.63507326  0.56960685  0.28838714     0.08000
H3759       H  0.67147625  0.58164491  0.28402503     0.08000
H3760       H  0.64222873  0.60610568  0.27957324     0.04800
C3761       C  0.51195424  0.67547973  0.34976774    -0.21000
C3762       C  0.53767642  0.66044253  0.34877866    -0.07600
C3763       C  0.53807410  0.63080667  0.34449848     0.13300
C3764       C  0.51241613  0.61622763  0.34693950    -0.21100
C3765       C  0.99019339  0.63125232  0.34806064    -0.07600
C3766       C  0.98919758  0.66076191  0.34316660     0.13300
C3767       C  0.96170241  0.67735612  0.34524769    -0.24400
H3768       H  0.51223425  0.69838597  0.35266058     0.14500
H3769       H  0.51233800  0.59319658  0.34688774     0.14600
C3770       C  0.56560528  0.61451903  0.34088262    -0.24400
H3771       H  0.96511003  0.70037042  0.34123633     0.04800
H3772       H  0.95212186  0.67483773  0.36915987     0.08000
H3773       H  0.94655922  0.66955885  0.32692881     0.08000
H3774       H  0.57915310  0.61760197  0.36223760     0.08000
H3775       H  0.57718181  0.62213197  0.31959635     0.08000
H3776       H  0.56182044  0.59139910  0.33789723     0.04800
C3777       C  0.88208244  0.67202474  0.34274469    -0.21000
C3778       C  0.88810904  0.66762120  0.37521486    -0.07600
C3779       C  0.88598715  0.69114691  0.39609604     0.13300
C3780       C  0.87707511  0.71782350  0.38428091    -0.21100
C3781       C  0.87114711  0.72226062  0.35172395    -0.07600
C3782       C  0.87417261  0.69888052  0.33071298     0.13300
C3783       C  0.86855278  0.70183931  0.29564669    -0.24400
H3784       H  0.88429702  0.65433375  0.32633490     0.14500
H3785       H  0.87497464  0.73551380  0.40070337     0.14600
C3786       C  0.89240889  0.68808925  0.43096045    -0.24400
H3787       H  0.87092639  0.68126910  0.28287956     0.04800
H3788       H  0.88398402  0.71691129  0.28515054     0.08000
H3789       H  0.84648288  0.70968458  0.29172114     0.08000
H3790       H  0.91527488  0.68279072  0.43437546     0.08000
H3791       H  0.87903973  0.67104911  0.44120641     0.08000
H3792       H  0.88787306  0.70797694  0.44429185     0.04800
C3793       C  0.78998497  0.53134689  0.36604015    -0.21000
C3794       C  0.78640239  0.51952885  0.33522698    -0.07600
C3795       C  0.81058997  0.51775746  0.31526172     0.13300
C3796       C  0.83719427  0.52751479  0.32665009    -0.21100
C3797       C  0.84067031  0.53776345  0.35799823    -0.07600
C3798       C  0.81662477  0.53988930  0.37774526     0.13300
C3799       C  0.81875177  0.55195396  0.41093321    -0.24400
H3800       H  0.77182972  0.53337753  0.38176912     0.14500
H3801       H  0.85555655  0.52668713  0.31109962     0.14600
C3802       C  0.80678767  0.99970771  0.28226393    -0.24400
H3803       H  0.79762198  0.55314831  0.42275927     0.04800
H3804       H  0.82765224  0.57374216  0.41008832     0.08000
H3805       H  0.83277433  0.53830936  0.42567154     0.08000
H3806       H  0.79187659  0.01122857  0.26636132     0.08000
H3807       H  0.79931582  0.97759198  0.28557887     0.08000
H3808       H  0.82790115  0.99871232  0.27036987     0.04800
C3809       C  0.87122733  0.91308958  0.20802622    -0.21000
C3810       C  0.90114351  0.91639362  0.20825899    -0.07600
C3811       C  0.91667438  0.89914037  0.23009355     0.13300
C3812       C  0.90222795  0.88008217  0.25057600    -0.21100
C3813       C  0.87233699  0.87685630  0.25049686    -0.07600
C3814       C  0.85679352  0.89376832  0.22829929     0.13300
C3815       C  0.82482467  0.89180975  0.22544056    -0.24400
H3816       H  0.85879867  0.92587884  0.19176300     0.14500
H3817       H  0.91469120  0.86723659  0.26674380     0.14600
C3818       C  0.94873277  0.90022154  0.23214497    -0.24400
H3819       H  0.81619553  0.90685506  0.20760353     0.04800
H3820       H  0.81473431  0.89700566  0.24862042     0.08000
H3821       H  0.81869369  0.87010593  0.21770677     0.08000
H3822       H  0.95562315  0.92165228  0.24000650     0.08000
H3823       H  0.95818120  0.89497430  0.20863824     0.08000
H3824       H  0.95733427  0.88474997  0.24953097     0.04800
C3825       C  0.96714573  0.53449767  0.29005138    -0.21000
C3826       C  0.94702788  0.52145004  0.30988498    -0.07600
C3827       C  0.92881117  0.50046474  0.29734982     0.13300
C3828       C  0.92820253  0.99346097  0.26277899    -0.21100
C3829       C  0.94611033  0.51168240  0.24432957    -0.07600
C3830       C  0.96676585  0.53005208  0.25724088     0.13300
C3831       C  0.98707361  0.54636922  0.23653756    -0.24400
H3832       H  0.98134979  0.55036552  0.29997032     0.14500
H3833       H  0.91356628  0.97824776  0.25234428     0.14600
C3834       C  0.90722996  0.98174262  0.31584874    -0.24400
H3835       H  0.00046619  0.56118110  0.25068026     0.04800
H3836       H  0.97490304  0.55901817  0.21891819     0.08000
H3837       H  0.00161845  0.53150607  0.22396210     0.08000
H3838       H  0.89189793  0.99625972  0.32763595     0.08000
H3839       H  0.91923977  0.96987528  0.33425373     0.08000
H3840       H  0.89481264  0.96619245  0.30158243     0.04800
C3841       C  0.71510335  0.51769541  0.19730618    -0.21000
C3842       C  0.69065728  0.50703868  0.21204688    -0.07600
C3843       C  0.66679391  0.99563719  0.19264432     0.13300
C3844       C  0.66837602  0.50190077  0.16010643    -0.21100
C3845       C  0.69173982  0.51499162  0.14577262    -0.07600
C3846       C  0.71585072  0.52199012  0.16442403     0.13300
C3847       C  0.74227112  0.53490068  0.15025919    -0.24400
H3848       H  0.73354476  0.52316450  0.21161052     0.14500
H3849       H  0.64984301  0.99451456  0.14513889     0.14600
C3850       C  0.64059595  0.98219817  0.20653229    -0.24400
H3851       H  0.76108069  0.52156557  0.15619631     0.04800
H3852       H  0.74546215  0.55654253  0.16019903     0.08000
H3853       H  0.74111162  0.53636644  0.12398344     0.08000
H3854       H  0.63006779  0.99708967  0.22338362     0.08000
H3855       H  0.64675579  0.96250248  0.21896741     0.08000
H3856       H  0.62487487  0.97635770  0.18789639     0.04800
C3857       C  0.53722994  0.52885512  0.08825242    -0.21000
C3858       C  0.53440537  0.51668918  0.11869249    -0.07600
C3859       C  0.55922106  0.51346213  0.13752280     0.13300
C3860       C  0.58568777  0.52261727  0.12564948    -0.21100
C3861       C  0.58850975  0.53401746  0.09498803    -0.07600
C3862       C  0.56386620  0.53729439  0.07612970     0.13300
C3863       C  0.56544187  0.55050784  0.04367613    -0.24400
H3864       H  0.51848888  0.53129849  0.07341405     0.14500
H3865       H  0.60452037  0.52057412  0.14040493     0.14600
C3866       C  0.55698642  0.99877795  0.17098688    -0.24400
H3867       H  0.54403929  0.55247453  0.03257900     0.04800
H3868       H  0.57890175  0.53720255  0.02778458     0.08000
H3869       H  0.57475925  0.57208467  0.04556925     0.08000
H3870       H  0.55085489  0.97608148  0.16951914     0.08000
H3871       H  0.54243074  0.51274356  0.18511723     0.08000
H3872       H  0.57775756  0.99994124  0.18356147     0.04800
C3873       C  0.66092170  0.86554207  0.21995700    -0.21000
C3874       C  0.63194441  0.86789101  0.21104999    -0.07600
C3875       C  0.61613229  0.89098190  0.22404979     0.13300
C3876       C  0.62925147  0.91025060  0.24525692    -0.21100
C3877       C  0.65823404  0.90826805  0.25408121    -0.07600
C3878       C  0.67420649  0.88523536  0.24102840     0.13300
C3879       C  0.70530909  0.88123851  0.24878676    -0.24400
H3880       H  0.67332383  0.84796713  0.21053418     0.14500
H3881       H  0.61651448  0.92760475  0.25461021     0.14600
C3882       C  0.58543611  0.89637575  0.21506622    -0.24400
H3883       H  0.71438821  0.86216653  0.23682932     0.04800
H3884       H  0.70803569  0.87848782  0.27479571     0.08000
H3885       H  0.71761839  0.89993734  0.24073894     0.08000
H3886       H  0.57169964  0.87915733  0.22422166     0.08000
H3887       H  0.58342123  0.89776473  0.18883268     0.08000
H3888       H  0.57724665  0.91661238  0.22527634     0.04800
C3889       C  0.55959180  0.75911929  0.29243570    -0.21000
C3890       C  0.57999640  0.77193486  0.31231841    -0.07600
C3891       C  0.59871799  0.79222948  0.29956556     0.13300
C3892       C  0.59970388  0.79560995  0.26654075    -0.21100
C3893       C  0.58192341  0.77971521  0.24637787    -0.07600
C3894       C  0.56046354  0.76261273  0.25952143     0.13300
C3895       C  0.53947088  0.74692562  0.23899392    -0.24400
H3896       H  0.54478242  0.74397900  0.30244435     0.14500
H3897       H  0.61480651  0.81033580  0.25632643     0.14600
C3898       C  0.61857517  0.80923422  0.32032827    -0.24400
H3899       H  0.52543128  0.73291358  0.25315451     0.04800
H3900       H  0.55091251  0.73361548  0.22121720     0.08000
H3901       H  0.52574327  0.76259485  0.22683585     0.08000
H3902       H  0.63370490  0.79505321  0.33281242     0.08000
H3903       H  0.60597390  0.82141650  0.33812561     0.08000
H3904       H  0.63125218  0.82455970  0.30627826     0.04800
C3905       C  0.50887399  0.86494780  0.09187317    -0.21000
C3906       C  0.53763970  0.87132954  0.09739876    -0.07600
C3907       C  0.54699981  0.89964074  0.09848880     0.13300
C3908       C  0.52676659  0.92115203  0.09679607    -0.21100
C3909       C  0.99934485  0.91626448  0.09624191    -0.07600
C3910       C  0.98914960  0.88870455  0.09084009     0.13300
C3911       C  0.95786450  0.88307489  0.08597932    -0.24400
H3912       H  0.00079601  0.84461491  0.09003010     0.14500
H3913       H  0.53340586  0.94306733  0.09963681     0.14600
C3914       C  0.57784437  0.90723151  0.10324785    -0.24400
H3915       H  0.95360422  0.86013261  0.08216683     0.04800
H3916       H  0.95032268  0.89475970  0.06474673     0.08000
H3917       H  0.94552635  0.89022951  0.10707197     0.08000
H3918       H  0.59036826  0.89841185  0.08334383     0.08000
H3919       H  0.58597482  0.89861196  0.12598469     0.08000
H3920       H  0.58109498  0.93057690  0.10370184     0.04800
C3921       C  0.63001521  0.71127157  0.07416252    -0.21000
C3922       C  0.62328504  0.71484944  0.10668976    -0.07600
C3923       C  0.62414520  0.69077626  0.12651462     0.13300
C3924       C  0.63132141  0.66411135  0.11340471    -0.21100
C3925       C  0.63848504  0.66061942  0.08105175    -0.07600
C3926       C  0.63791766  0.68468190  0.06124676     0.13300
C3927       C  0.64499835  0.68241618  0.02641601    -0.24400
H3928       H  0.62946462  0.72955342  0.05868304     0.14500
H3929       H  0.63221446  0.64588597  0.12894120     0.14600
C3930       C  0.61711585  0.69279167  0.16138229    -0.24400
H3931       H  0.64181922  0.70294142  0.01405937     0.04800
H3932       H  0.63102135  0.66641299  0.01488420     0.08000
H3933       H  0.66764089  0.67611074  0.02330987     0.08000
H3934       H  0.59534143  0.70169509  0.16455497     0.08000
H3935       H  0.63284910  0.70656521  0.17365017     0.08000
H3936       H  0.61778544  0.67169587  0.17299256     0.04800
C3937       C  0.84949021  0.79906388  0.19473894    -0.21000
C3938       C  0.83058148  0.78408667  0.21421640    -0.07600
C3939       C  0.81091679  0.76506887  0.20068558     0.13300
C3940       C  0.81223849  0.75983308  0.16803066    -0.21100
C3941       C  0.83352893  0.77221860  0.14909377    -0.07600
C3942       C  0.85136906  0.79324045  0.16221317     0.13300
C3943       C  0.87376047  0.80800002  0.14276876    -0.24400
H3944       H  0.86359758  0.81469263  0.20529538     0.14500
H3945       H  0.79848884  0.74373940  0.15775823     0.14600
C3946       C  0.79014439  0.74870070  0.22077178    -0.24400
H3947       H  0.88551116  0.82407684  0.15700364     0.04800
H3948       H  0.86350471  0.81903117  0.12249702     0.08000
H3949       H  0.88954665  0.79234706  0.13368865     0.08000
H3950       H  0.77483214  0.76348831  0.23229658     0.08000
H3951       H  0.80187322  0.73665152  0.23927966     0.08000
H3952       H  0.77766636  0.73331531  0.20635636     0.04800
C3953       C  0.76337576  0.67227671  0.11169566    -0.21000
C3954       C  0.78982680  0.65854700  0.11028586    -0.07600
C3955       C  0.79158604  0.62869939  0.11150347     0.13300
C3956       C  0.76649811  0.61307761  0.10926432    -0.21100
C3957       C  0.74034192  0.62696215  0.10572453    -0.07600
C3958       C  0.73829546  0.65667776  0.10913681     0.13300
C3959       C  0.71021659  0.67213736  0.10641917    -0.24400
H3960       H  0.76248989  0.69526861  0.11093705     0.14500
H3961       H  0.76749475  0.59014834  0.10708408     0.14600
C3962       C  0.81978293  0.61331071  0.11149439    -0.24400
H3963       H  0.71272361  0.69541844  0.10954528     0.04800
H3964       H  0.69533847  0.66454341  0.12497766     0.08000
H3965       H  0.70088077  0.66833230  0.08257268     0.08000
H3966       H  0.83245566  0.61998662  0.13247729     0.08000
H3967       H  0.83163082  0.61814936  0.08944267     0.08000
H3968       H  0.81702903  0.58993254  0.11257472     0.04800
C3969       C  0.99237826  0.76195130  0.08888254    -0.21000
C3970       C  0.99769710  0.76904030  0.12091091    -0.07600
C3971       C  0.97488138  0.76732015  0.14280145     0.13300
C3972       C  0.94773551  0.75863039  0.13217130    -0.21100
C3973       C  0.94227006  0.75217526  0.10000172    -0.07600
C3974       C  0.96508641  0.75384363  0.07812177     0.13300
C3975       C  0.96108272  0.74643723  0.04353492    -0.24400
H3976       H  0.00963644  0.76340717  0.07186655     0.14500
H3977       H  0.93047741  0.75715085  0.14919362     0.14600
C3978       C  0.97914173  0.77365710  0.17757504    -0.24400
H3979       H  0.98143488  0.74757098  0.03014495     0.04800
H3980       H  0.94591679  0.76154925  0.03242113     0.08000
H3981       H  0.95277052  0.72448657  0.04121523     0.08000
H3982       H  0.48783921  0.79582119  0.18066126     0.08000
H3983       H  0.49814125  0.75871755  0.18382259     0.08000
H3984       H  0.95949145  0.76973356  0.19155970     0.04800
C3985       C  0.90589231  0.59075882  0.12783279    -0.21000
C3986       C  0.90911205  0.56937802  0.10490676    -0.07600
C3987       C  0.90519768  0.57652983  0.07228955     0.13300
C3988       C  0.89653986  0.60422838  0.06408137    -0.21100
C3989       C  0.89345278  0.62559892  0.08709479    -0.07600
C3990       C  0.89879602  0.61874374  0.11947875     0.13300
C3991       C  0.89631492  0.64036682  0.14590621    -0.24400
H3992       H  0.90942552  0.58561478  0.15259444     0.14500
H3993       H  0.89260127  0.60941036  0.03940498     0.14600
C3994       C  0.91002378  0.55541054  0.04569822    -0.24400
H3995       H  0.90078067  0.63096960  0.16953827     0.04800
H3996       H  0.87439290  0.64913171  0.14673582     0.08000
H3997       H  0.91196209  0.65764797  0.14234685     0.08000
H3998       H  0.89661536  0.53640548  0.04906600     0.08000
H3999       H  0.93282453  0.54907075  0.04490646     0.08000
H4000       H  0.90462852  0.56446100  0.02213256     0.04800
C4001       C  0.87106054  0.73760695  0.90952507    -0.21000
C4002       C  0.87918825  0.71193159  0.89537966    -0.07600
C4003       C  0.88120482  0.68731355  0.91391750     0.13300
C4004       C  0.87931173  0.68970891  0.94694739    -0.21100
C4005       C  0.87489580  0.71622310  0.96184662    -0.07600
C4006       C  0.86904882  0.74027919  0.94259451     0.13300
C4007       C  0.86118012  0.76898805  0.95611438    -0.24400
H4008       H  0.86940717  0.75640240  0.89487641     0.14500
H4009       H  0.88193696  0.67075103  0.96111756     0.14600
C4010       C  0.88633712  0.65873888  0.89863033    -0.24400
H4011       H  0.85684967  0.78471968  0.93715499     0.04800
H4012       H  0.87893761  0.77734073  0.97084364     0.08000
H4013       H  0.84148287  0.76733980  0.97053191     0.08000
H4014       H  0.90674892  0.65860290  0.88540824     0.08000
H4015       H  0.86873185  0.65401876  0.88178792     0.08000
H4016       H  0.88719572  0.64150973  0.91650131     0.04800
C4017       C  0.64546753  0.59005565  0.90477555    -0.21000
C4018       C  0.65516641  0.56580114  0.88863329    -0.07600
C4019       C  0.66971365  0.54457199  0.90565602    -0.01100
C4020       C  0.67015624  0.54584611  0.93890409    -0.21100
C4021       C  0.65682968  0.56825176  0.95549378    -0.07600
C4022       C  0.64559904  0.59143053  0.93807746     0.13300
C4023       C  0.63185768  0.61672041  0.95411293    -0.24400
H4024       H  0.63404658  0.60618167  0.89150041     0.14500
H4025       H  0.68055719  0.52895843  0.95197712     0.14600
C4026       C  0.68289329  0.51954246  0.88859531    -0.24400
H4027       H  0.62208998  0.63143591  0.93664461     0.04800
H4028       H  0.64804098  0.62896272  0.96760671     0.08000
H4029       H  0.61476133  0.60952896  0.97038539     0.08000
H4030       H  0.69931399  0.52718374  0.87174379     0.08000
H4031       H  0.66643638  0.50761806  0.87513790     0.08000
H4032       H  0.69331286  0.50465561  0.90540559     0.04800
C4033       C  0.53422710  0.67039247  0.86138950    -0.21000
C4034       C  0.00285481  0.66060877  0.86586651    -0.07600
C4035       C  0.99432927  0.63473533  0.87914665     0.13300
C4036       C  0.51921612  0.61931375  0.88978538    -0.21100
C4037       C  0.54613811  0.62230396  0.87581564    -0.07600
C4038       C  0.55467950  0.64898005  0.86444462     0.13300
C4039       C  0.58454885  0.65367612  0.85246244    -0.24400
H4040       H  0.53987262  0.69018375  0.85001014     0.14500
H4041       H  0.00837813  0.59274700  0.89149573     0.14600
C4042       C  0.96344016  0.62871188  0.88574876    -0.24400
H4043       H  0.58760626  0.67579551  0.84416380     0.04800
H4044       H  0.58928558  0.63915718  0.83229150     0.08000
H4045       H  0.59998551  0.64957238  0.87191847     0.08000
H4046       H  0.95092845  0.63009121  0.86340225     0.08000
H4047       H  0.95514058  0.64451054  0.90312682     0.08000
H4048       H  0.96044819  0.60718196  0.89578691     0.04800
C4049       C  0.75369461  0.79477093  0.98677354    -0.21000
C4050       C  0.74470259  0.78018113  0.95912346    -0.07600
C4051       C  0.75654973  0.75267143  0.95375609     0.13300
C4052       C  0.77672845  0.74119055  0.97529912    -0.21100
C4053       C  0.78580550  0.75577956  0.00284921    -0.07600
C4054       C  0.77372701  0.78312520  0.00850021     0.13300
C4055       C  0.78130636  0.80023272  0.03764658    -0.24400
H4056       H  0.74460315  0.81548100  0.99183943     0.14500
H4057       H  0.78570394  0.72042386  0.97027586     0.14600
C4058       C  0.74831223  0.73491274  0.92531207    -0.24400
H4059       H  0.76887335  0.82030791  0.03912186     0.04800
H4060       H  0.80421427  0.80598948  0.03708207     0.08000
H4061       H  0.77665174  0.78778158  0.05933889     0.08000
H4062       H  0.75267042  0.74674735  0.90311988     0.08000
H4063       H  0.72538647  0.72930951  0.92663975     0.08000
H4064       H  0.76052696  0.71469120  0.92415264     0.04800
C4065       C  0.65209079  0.84052488  0.01572065    -0.21000
C4066       C  0.65699015  0.81476629  0.99967615    -0.07600
C4067       C  0.66483833  0.79045761  0.01779016     0.13300
C4068       C  0.66402467  0.79206300  0.05104347    -0.21100
C4069       C  0.65467169  0.81671321  0.06643962    -0.07600
C4070       C  0.65105203  0.84176469  0.04880555     0.13300
C4071       C  0.64356518  0.86960739  0.06426911    -0.24400
H4072       H  0.64790153  0.85976613  0.00247728     0.14500
H4073       H  0.66700781  0.77290134  0.06484699     0.14600
C4074       C  0.67330311  0.76243283  0.00295875    -0.24400
H4075       H  0.66021813  0.88548967  0.05870737     0.04800
H4076       H  0.64186268  0.86794693  0.09050268     0.08000
H4077       H  0.62299310  0.87707170  0.05442366     0.08000
H4078       H  0.69226704  0.76522080  0.98767192     0.08000
H4079       H  0.65533118  0.75372369  0.98884784     0.08000
H4080       H  0.67899735  0.74635981  0.02112258     0.04800
C4081       C  0.56693332  0.78312035  0.88007888    -0.21000
C4082       C  0.58971382  0.77863349  0.85916305    -0.07600
C4083       C  0.58399471  0.76634250  0.82895550     0.13300
C4084       C  0.55598412  0.75833278  0.82090141    -0.21100
C4085       C  0.53304041  0.76285184  0.84175595    -0.07600
C4086       C  0.53875799  0.77577993  0.87180782     0.13300
C4087       C  0.51565823  0.78133188  0.89597832    -0.24400
H4088       H  0.57119553  0.79286324  0.90298400     0.14500
H4089       H  0.55201951  0.74821818  0.79813241     0.14600
C4090       C  0.60750719  0.76025112  0.80558013    -0.24400
H4091       H  0.52420964  0.79104348  0.91810890     0.04800
H4092       H  0.50531073  0.76107887  0.90260657     0.08000
H4093       H  0.00198992  0.76825726  0.90116587     0.08000
H4094       H  0.62334333  0.74618882  0.81698508     0.08000
H4095       H  0.61781286  0.78022847  0.79797377     0.08000
H4096       H  0.59954238  0.74931151  0.78389170     0.04800
C4097       C  0.61635423  0.93975453  0.83134614    -0.21000
C4098       C  0.61235077  0.96128518  0.85388634    -0.07600
C4099       C  0.61723178  0.95496677  0.88640557     0.13300
C4100       C  0.62729478  0.92777973  0.89520891    -0.21100
C4101       C  0.63137723  0.90607931  0.87263240    -0.07600
C4102       C  0.62514614  0.91223900  0.84015232     0.13300
C4103       C  0.62867903  0.89045368  0.81404685    -0.24400
H4104       H  0.61253262  0.94456590  0.80653261     0.14500
H4105       H  0.63191782  0.92340386  0.91995378     0.14600
C4106       C  0.61244100  0.97701119  0.91193710    -0.24400
H4107       H  0.65109553  0.88297639  0.81318427     0.04800
H4108       H  0.62347885  0.89928263  0.79031786     0.08000
H4109       H  0.61409032  0.87234401  0.81802507     0.08000
H4110       H  0.58972428  0.98366492  0.91210534     0.08000
H4111       H  0.62600846  0.99575193  0.90760885     0.08000
H4112       H  0.61772710  0.96875249  0.93589953     0.04800
C4113       C  0.78169502  0.99017762  0.98848367    -0.21000
C4114       C  0.78473253  0.50021977  0.95566730    -0.07600
C4115       C  0.76767234  0.52345802  0.94543905     0.13300
C4116       C  0.74782543  0.53637915  0.96653219    -0.21100
C4117       C  0.74397184  0.52708993  0.99805564    -0.07600
C4118       C  0.76095553  0.50382443  0.00830637     0.13300
C4119       C  0.76145770  0.99374067  0.04382863    -0.24400
H4120       H  0.79563996  0.97358230  0.99725523     0.14500
H4121       H  0.73482817  0.55382974  0.95804214     0.14600
C4122       C  0.76959211  0.53446636  0.91197595    -0.24400
H4123       H  0.77802843  0.97741318  0.04865371     0.04800
H4124       H  0.73774815  0.48415992  0.04643477     0.08000
H4125       H  0.76547090  0.01212786  0.05982482     0.08000
H4126       H  0.76578674  0.51690224  0.89479866     0.08000
H4127       H  0.79092230  0.54380817  0.90779372     0.08000
H4128       H  0.75348691  0.55129641  0.90736406     0.04800
C4129       C  0.86087418  0.97930759  0.01426330    -0.21000
C4130       C  0.87561473  0.95888398  0.99600131    -0.07600
C4131       C  0.89054942  0.93684233  0.01149768     0.13300
C4132       C  0.89318517  0.93793081  0.04453443    -0.21100
C4133       C  0.88207779  0.96082614  0.06217492    -0.07600
C4134       C  0.86336868  0.98007549  0.04741824     0.13300
C4135       C  0.84671973  0.00173991  0.06636970    -0.24400
H4136       H  0.84746828  0.99484769  0.00253121     0.14500
H4137       H  0.90689593  0.92270027  0.05633556     0.14600
C4138       C  0.90531253  0.91321670  0.99351640    -0.24400
H4139       H  0.83285390  0.01490025  0.05086990     0.04800
H4140       H  0.86114208  0.01617627  0.07955256     0.08000
H4141       H  0.83287292  0.99065254  0.08365639     0.08000
H4142       H  0.92013833  0.92222402  0.97570384     0.08000
H4143       H  0.88929229  0.89965130  0.98147678     0.08000
H4144       H  0.91788685  0.89930682  0.00954310     0.04800
C4145       C  0.76238668  0.92050912  0.84501375    -0.21000
C4146       C  0.78834859  0.90576014  0.84497130    -0.07600
C4147       C  0.78899589  0.87601811  0.84165490     0.13300
C4148       C  0.76347719  0.86127317  0.84445201    -0.21100
C4149       C  0.73796678  0.87597438  0.84961900    -0.07600
C4150       C  0.73681493  0.90573734  0.84744450     0.13300
C4151       C  0.70917476  0.92186026  0.85117809    -0.24400
H4152       H  0.76235934  0.94347008  0.84714562     0.14500
H4153       H  0.76383839  0.83834889  0.84597742     0.14600
C4154       C  0.81664410  0.85974069  0.83918618    -0.24400
H4155       H  0.71235375  0.94513531  0.84924822     0.04800
H4156       H  0.69969460  0.91751264  0.87479397     0.08000
H4157       H  0.69401458  0.91522224  0.83231558     0.08000
H4158       H  0.82947841  0.86299713  0.86100783     0.08000
H4159       H  0.82886070  0.86713689  0.81824841     0.08000
H4160       H  0.81298751  0.83658415  0.83635495     0.04800
C4161       C  0.94494923  0.52705567  0.85166301    -0.21000
C4162       C  0.94008258  0.99877368  0.86048112    -0.07600
C4163       C  0.96348246  0.98094557  0.85300150     0.13300
C4164       C  0.98881671  0.99292638  0.84131664    -0.21100
C4165       C  0.99461811  0.51897503  0.83670607    -0.07600
C4166       C  0.97049717  0.53701231  0.83812086     0.13300
C4167       C  0.97187509  0.56697695  0.82597077    -0.24400
H4168       H  0.92689243  0.54127900  0.85378276     0.14500
H4169       H  0.49293546  0.99767937  0.80056627     0.14600
C4170       C  0.96216311  0.94941185  0.85854357    -0.24400
H4171       H  0.95132172  0.57841139  0.82923651     0.04800
H4172       H  0.97697377  0.56668996  0.80022019     0.08000
H4173       H  0.98866061  0.57890327  0.83878352     0.08000
H4174       H  0.94554915  0.93974192  0.84320067     0.08000
H4175       H  0.95703608  0.94526938  0.88384466     0.08000
H4176       H  0.98276616  0.93881959  0.85294747     0.04800
C4177       C  0.90053082  0.81669858  0.88183772    -0.21000
C4178       C  0.90750234  0.81173479  0.84961530    -0.07600
C4179       C  0.90620651  0.83496246  0.82847517     0.13300
C4180       C  0.89834966  0.86210083  0.84004513    -0.21100
C4181       C  0.89090061  0.86687444  0.87210950    -0.07600
C4182       C  0.89186729  0.84365196  0.89316047     0.13300
C4183       C  0.88452612  0.84728103  0.92777179    -0.24400
H4184       H  0.90153533  0.79921153  0.89839313     0.14500
H4185       H  0.89725271  0.87967666  0.82359603     0.14600
C4186       C  0.91354606  0.83155202  0.79382063    -0.24400
H4187       H  0.88824279  0.82748008  0.94133154     0.04800
H4188       H  0.86170602  0.85311646  0.93039225     0.08000
H4189       H  0.89803833  0.86412349  0.93840658     0.08000
H4190       H  0.89822561  0.81689697  0.78220466     0.08000
H4191       H  0.93553470  0.82300899  0.79133614     0.08000
H4192       H  0.91249698  0.85208508  0.78104448     0.04800
C4193       C  0.90264193  0.61233315  0.71876488    -0.21000
C4194       C  0.87469223  0.61720300  0.70754432    -0.07600
C4195       C  0.86059551  0.64222429  0.71832889     0.13300
C4196       C  0.87441042  0.66098960  0.73987908    -0.21100
C4197       C  0.90230645  0.65603072  0.75125912    -0.07600
C4198       C  0.91649887  0.63113807  0.74022397     0.13300
C4199       C  0.94602855  0.62363464  0.75164503    -0.24400
H4200       H  0.91367372  0.59323692  0.71111202     0.14500
H4201       H  0.86340965  0.68013722  0.74743258     0.14600
C4202       C  0.83128411  0.64993920  0.70640798    -0.24400
H4203       H  0.95313035  0.60262016  0.74246357     0.04800
H4204       H  0.94633474  0.62277729  0.77800876     0.08000
H4205       H  0.96157288  0.63961167  0.74327886     0.08000
H4206       H  0.81549876  0.63409874  0.71452409     0.08000
H4207       H  0.83134662  0.65073116  0.68003714     0.08000
H4208       H  0.82424505  0.67103568  0.71541752     0.04800
C4209       C  0.89591172  0.59584098  0.51470582    -0.21000
C4210       C  0.90500575  0.57126538  0.49850520    -0.07600
C4211       C  0.91390049  0.54726282  0.51647442     0.13300
C4212       C  0.91114143  0.54796578  0.54955359    -0.21100
C4213       C  0.89755170  0.57066373  0.56462346    -0.07600
C4214       C  0.89200604  0.59574512  0.54763008     0.13300
C4215       C  0.88106207  0.62201930  0.56429575    -0.24400
H4216       H  0.89077404  0.61486735  0.50151823     0.14500
H4217       H  0.91633983  0.52927828  0.56330136     0.14600
C4218       C  0.92560347  0.52043580  0.50156978    -0.24400
H4219       H  0.87853371  0.64002709  0.54760992     0.04800
H4220       H  0.89640909  0.62844832  0.58307564     0.08000
H4221       H  0.86002465  0.61802426  0.57534307     0.08000
H4222       H  0.94489226  0.52530075  0.48760383     0.08000
H4223       H  0.90921183  0.51043913  0.48616890     0.08000
H4224       H  0.93185378  0.50449833  0.51965350     0.04800
C4225       C  0.85109247  0.54024669  0.76206276    -0.21000
C4226       C  0.82991024  0.52700128  0.74375271    -0.07600
C4227       C  0.80902064  0.51035489  0.75871984     0.13300
C4228       C  0.81174937  0.50495120  0.79132574    -0.21100
C4229       C  0.83485721  0.51576970  0.80891424    -0.07600
C4230       C  0.85282045  0.03436307  0.79545303     0.13300
C4231       C  0.87738052  0.04702260  0.81353475    -0.24400
H4232       H  0.86641538  0.55400129  0.75062255     0.14500
H4233       H  0.79728901  0.49018659  0.80255910     0.14600
C4234       C  0.78518641  0.49672046  0.74018480    -0.24400
H4235       H  0.89035873  0.06134934  0.79852731     0.04800
H4236       H  0.89142215  0.02967770  0.82191813     0.08000
H4237       H  0.86928832  0.05945775  0.83413967     0.08000
H4238       H  0.79414314  0.48317125  0.72092645     0.08000
H4239       H  0.77129535  0.51333169  0.72969491     0.08000
H4240       H  0.77167034  0.48319949  0.75552357     0.04800
C4241       C  0.62016169  0.66284371  0.71414628    -0.21000
C4242       C  0.64929611  0.66084392  0.70593962    -0.07600
C4243       C  0.66510673  0.63805775  0.71951887     0.13300
C4244       C  0.65171792  0.61870634  0.74043502    -0.21100
C4245       C  0.62276597  0.62106436  0.74932307    -0.07600
C4246       C  0.60686560  0.64369119  0.73550346     0.13300
C4247       C  0.57569120  0.64788637  0.74277295    -0.24400
H4248       H  0.60770697  0.68017192  0.70444946     0.14500
H4249       H  0.66431193  0.60151832  0.75021511     0.14600
C4250       C  0.69624469  0.63357860  0.71204759    -0.24400
H4251       H  0.56652456  0.66619742  0.72971624     0.04800
H4252       H  0.57278950  0.65210244  0.76855051     0.08000
H4253       H  0.56356606  0.62867844  0.73566493     0.08000
H4254       H  0.70902940  0.65133088  0.72190309     0.08000
H4255       H  0.69932257  0.63208679  0.68593156     0.08000
H4256       H  0.70464453  0.61371110  0.72267799     0.04800
C4257       C  0.61636819  0.73753685  0.55167992    -0.21000
C4258       C  0.63014437  0.71417170  0.56501732    -0.07600
C4259       C  0.63737821  0.69063574  0.54581367     0.13300
C4260       C  0.63417959  0.69257344  0.51298678    -0.21100
C4261       C  0.62381580  0.71751525  0.49890697    -0.07600
C4262       C  0.61361914  0.73993789  0.51873402     0.13300
C4263       C  0.60044059  0.76679297  0.50595491    -0.24400
H4264       H  0.61105256  0.75556701  0.56674349     0.14500
H4265       H  0.64078344  0.67473719  0.49829918     0.14600
C4266       C  0.65059166  0.66412927  0.55938730    -0.24400
H4267       H  0.59342146  0.78142715  0.52524196     0.04800
H4268       H  0.58140858  0.76152732  0.49168588     0.08000
H4269       H  0.61613578  0.77839740  0.49128220     0.08000
H4270       H  0.65165437  0.66482134  0.58573426     0.08000
H4271       H  0.67253134  0.66139079  0.54992630     0.08000
H4272       H  0.63762457  0.64542619  0.55246560     0.04800
C4273       C  0.68210770  0.74069481  0.80312424    -0.21000
C4274       C  0.70069118  0.76157776  0.81390967    -0.07600
C4275       C  0.72038555  0.77367142  0.79255826     0.13300
C4276       C  0.71708165  0.76885084  0.76002358    -0.21100
C4277       C  0.69493467  0.75171388  0.74872920    -0.07600
C4278       C  0.67838324  0.73606549  0.77061549     0.13300
C4279       C  0.65752893  0.71379950  0.76020519    -0.24400
H4280       H  0.66854379  0.72994946  0.82000390     0.14500
H4281       H  0.73138889  0.77905631  0.74341220     0.14600
C4282       C  0.74412262  0.79267170  0.80368673    -0.24400
H4283       H  0.64620115  0.70413213  0.78060004     0.04800
H4284       H  0.66964219  0.69669943  0.74825441     0.08000
H4285       H  0.64117592  0.72292654  0.74415738     0.08000
H4286       H  0.74534186  0.79353338  0.83000387     0.08000
H4287       H  0.74080862  0.81445193  0.79441425     0.08000
H4288       H  0.76483072  0.78432070  0.79482909     0.04800
C4289       C  0.73428618  0.64105750  0.58904263    -0.21000
C4290       C  0.74745949  0.66715439  0.59422464    -0.07600
C4291       C  0.77742236  0.66947773  0.59333312     0.13300
C4292       C  0.79365038  0.64466424  0.59270367    -0.21100
C4293       C  0.78022357  0.61827917  0.59298201    -0.07600
C4294       C  0.75050667  0.61625633  0.58834736     0.13300
C4295       C  0.73554151  0.58812419  0.58630085    -0.24400
H4296       H  0.71119715  0.63983204  0.58915877     0.14500
H4297       H  0.81657774  0.64578519  0.59577422     0.14600
C4298       C  0.79228572  0.69755866  0.59705660    -0.24400
H4299       H  0.71218648  0.59071803  0.58294545     0.04800
H4300       H  0.73894057  0.57609834  0.60850589     0.08000
H4301       H  0.74391175  0.57592265  0.56573595     0.08000
H4302       H  0.78766124  0.70654069  0.62085895     0.08000
H4303       H  0.78491502  0.71240258  0.57836804     0.08000
H4304       H  0.81579557  0.69533779  0.59494020     0.04800
C4305       C  0.00365309  0.75004621  0.50765125    -0.21000
C4306       C  0.99056804  0.77605730  0.49997303    -0.07600
C4307       C  0.50851874  0.79497164  0.48358389     0.13300
C4308       C  0.52836482  0.78186798  0.46257942    -0.21100
C4309       C  0.53130465  0.75216812  0.45976479    -0.07600
C4310       C  0.51301073  0.73534586  0.47905322     0.13300
C4311       C  0.51387037  0.70338366  0.47761885    -0.24400
H4312       H  0.99775499  0.73983814  0.52966555     0.14500
H4313       H  0.54224778  0.79518443  0.44856088     0.14600
C4314       C  0.50785376  0.82695364  0.48499846    -0.24400
H4315       H  0.49704371  0.69374134  0.49258945     0.04800
H4316       H  0.53469930  0.69550359  0.48652751     0.08000
H4317       H  0.51043457  0.69603811  0.45279297     0.08000
H4318       H  0.51157343  0.83430507  0.50977093     0.08000
H4319       H  0.96203798  0.81404788  0.45769736     0.08000
H4320       H  0.52460381  0.83651518  0.46985902     0.04800
C4321       C  0.88882393  0.84208850  0.45248730    -0.21000
C4322       C  0.89776621  0.81584967  0.46482396    -0.07600
C4323       C  0.90582820  0.79377069  0.44342881     0.13300
C4324       C  0.90336200  0.79826295  0.41071044    -0.21100
C4325       C  0.89166075  0.82340254  0.39890495    -0.07600
C4326       C  0.88558004  0.84606143  0.41985501     0.13300
C4327       C  0.87410461  0.87409850  0.40832594    -0.24400
H4328       H  0.88359797  0.85952846  0.46840133     0.14500
H4329       H  0.90745685  0.78078584  0.39441411     0.14600
C4330       C  0.91649082  0.76519024  0.45434366    -0.24400
H4331       H  0.88824587  0.89149030  0.41658163     0.04800
H4332       H  0.85236537  0.87767567  0.41802829     0.08000
H4333       H  0.87302808  0.87505755  0.38200879     0.08000
H4334       H  0.89980972  0.75457242  0.46861701     0.08000
H4335       H  0.93614040  0.76770463  0.46864473     0.08000
H4336       H  0.92180891  0.75093605  0.43406384     0.04800
C4337       C  0.96917704  0.76019037  0.66398468    -0.21000
C4338       C  0.94495223  0.75177294  0.64671347    -0.07600
C4339       C  0.92413450  0.73496620  0.66159080     0.13300
C4340       C  0.92578486  0.73096285  0.69444729    -0.21100
C4341       C  0.94802979  0.74283829  0.71252243    -0.07600
C4342       C  0.97104792  0.75590881  0.69682939     0.13300
C4343       C  0.99658702  0.76708704  0.71460651    -0.24400
H4344       H  0.98532069  0.77277211  0.65224270     0.14500
H4345       H  0.90910400  0.71913793  0.70625388     0.14600
C4346       C  0.89922759  0.72285788  0.64345185    -0.24400
H4347       H  0.01170461  0.77806323  0.69857095     0.04800
H4348       H  0.00831376  0.74927962  0.72586282     0.08000
H4349       H  0.98961087  0.78248659  0.73312497     0.08000
H4350       H  0.90717913  0.70884493  0.62407394     0.08000
H4351       H  0.88621923  0.74013980  0.63310408     0.08000
H4352       H  0.88510447  0.71009735  0.65895116     0.04800
C4353       C  0.83136056  0.77298202  0.63514814    -0.21000
C4354       C  0.83647608  0.77963094  0.60304971    -0.07600
C4355       C  0.81304080  0.78150271  0.58205738     0.13300
C4356       C  0.78551788  0.77541499  0.59331811    -0.21100
C4357       C  0.78065170  0.76728207  0.62501106    -0.07600
C4358       C  0.80390269  0.76659181  0.64632267     0.13300
C4359       C  0.79989224  0.75982676  0.68098994    -0.24400
H4360       H  0.84907085  0.77249087  0.65167414     0.14500
H4361       H  0.76776888  0.77600563  0.57683654     0.14600
C4362       C  0.81669059  0.79067272  0.54806112    -0.24400
H4363       H  0.82001134  0.76237516  0.69462562     0.04800
H4364       H  0.79290798  0.73753192  0.68381299     0.08000
H4365       H  0.78371515  0.77437274  0.69149375     0.08000
H4366       H  0.82990429  0.77493998  0.53493120     0.08000
H4367       H  0.82710792  0.81178878  0.54735289     0.08000
H4368       H  0.79590572  0.79242252  0.53555546     0.04800
C4369       C  0.87089830  0.93927925  0.63133150    -0.21000
C4370       C  0.86705971  0.95954843  0.60735461    -0.07600
C4371       C  0.87072182  0.95059921  0.57515326     0.13300
C4372       C  0.87956502  0.92257927  0.56830155    -0.21100
C4373       C  0.88351752  0.90247630  0.59229467    -0.07600
C4374       C  0.87853252  0.91092748  0.62430781     0.13300
C4375       C  0.88210111  0.89055968  0.65153364    -0.24400
H4376       H  0.86770202  0.94561378  0.65586431     0.14500
H4377       H  0.88331015  0.91621183  0.54386725     0.14600
C4378       C  0.86581288  0.97024651  0.54752478    -0.24400
H4379       H  0.87823797  0.90101645  0.67486299     0.04800
H4380       H  0.90411751  0.88190182  0.65179794     0.08000
H4381       H  0.86659649  0.87294343  0.64918392     0.08000
H4382       H  0.88529367  0.49361786  0.55197939     0.08000
H4383       H  0.84899351  0.48280853  0.54368593     0.08000
H4384       H  0.87097634  0.95996421  0.52440700     0.04800
C4385       C  0.49844232  0.50414237  0.45330486    -0.21000
C4386       C  0.99618427  0.53549222  0.45741174    -0.07600
C4387       C  0.01183887  0.54976091  0.48178119     0.13300
C4388       C  0.52168609  0.53022778  0.50688659    -0.21100
C4389       C  0.53044131  0.50213730  0.50015224    -0.07600
C4390       C  0.51836251  0.48915675  0.47248808     0.13300
C4391       C  0.50936675  0.95659052  0.48166653    -0.24400
H4392       H  0.48954431  0.49360911  0.43263252     0.14500
H4393       H  0.53064364  0.54077629  0.52751869     0.14600
C4394       C  0.00905372  0.58131888  0.48701507    -0.24400
H4395       H  0.49173647  0.94850182  0.46653597     0.04800
H4396       H  0.52925024  0.94604433  0.47346751     0.08000
H4397       H  0.52097637  0.44418395  0.48115630     0.08000
H4398       H  0.98700190  0.58669763  0.49453282     0.08000
H4399       H  0.01443326  0.59270415  0.46479798     0.08000
H4400       H  0.02367915  0.58907961  0.50589636     0.04800
C4401       C  0.59549404  0.54290194  0.69344101    -0.21000
C4402       C  0.58131372  0.52529040  0.71502672    -0.07600
C4403       C  0.56410644  0.50307315  0.70394431     0.13300
C4404       C  0.56358541  0.49730218  0.67139731    -0.21100
C4405       C  0.58059280  0.51266622  0.64989356    -0.07600
C4406       C  0.59537728  0.53688865  0.66078789     0.13300
C4407       C  0.61179207  0.55582315  0.63864331    -0.24400
H4408       H  0.60731131  0.56101786  0.70234789     0.14500
H4409       H  0.55110449  0.97869052  0.66474255     0.14600
C4410       C  0.54683692  0.48461363  0.72577311    -0.24400
H4411       H  0.62149622  0.57405163  0.65147937     0.04800
H4412       H  0.59717669  0.56443193  0.62028425     0.08000
H4413       H  0.62928026  0.54387014  0.62687996     0.08000
H4414       H  0.52396135  0.48603992  0.71916650     0.08000
H4415       H  0.54978463  0.98938894  0.75302327     0.08000
H4416       H  0.55477612  0.96117897  0.72466981     0.04800
C4417       C  0.61391823  0.99265605  0.40825722    -0.21000
C4418       C  0.62514124  0.96926601  0.39183554    -0.07600
C4419       C  0.63105510  0.94412101  0.40857659     0.13300
C4420       C  0.62832306  0.94390532  0.44174795    -0.21100
C4421       C  0.62067891  0.96858076  0.45881168    -0.07600
C4422       C  0.61273933  0.99323791  0.44148359     0.13300
C4423       C  0.59979154  0.51783353  0.45578092    -0.24400
H4424       H  0.60998227  0.01208794  0.39520864     0.14500
H4425       H  0.63344548  0.92456495  0.45438829     0.14600
C4426       C  0.64250636  0.91795492  0.39224441    -0.24400
H4427       H  0.59308913  0.53385051  0.43798073     0.04800
H4428       H  0.61626319  0.52787805  0.47102712     0.08000
H4429       H  0.58494652  0.01745293  0.47201260     0.08000
H4430       H  0.66410849  0.91307464  0.40153519     0.08000
H4431       H  0.64388323  0.92050325  0.36610629     0.08000
H4432       H  0.62825672  0.89973536  0.39710527     0.04800
C4433       C  0.51047991  0.91847087  0.61056650    -0.21000
C4434       C  0.53656894  0.90431180  0.60779202    -0.07600
C4435       C  0.53866207  0.87491391  0.61332962     0.13300
C4436       C  0.51355343  0.85947814  0.61626721    -0.21100
C4437       C  0.98910655  0.86979348  0.61158724    -0.07600
C4438       C  0.98689146  0.89962324  0.61184331     0.13300
C4439       C  0.95849410  0.91461595  0.61294584    -0.24400
H4440       H  0.50951233  0.94124826  0.60710803     0.14500
H4441       H  0.51438500  0.83647533  0.61676513     0.14600
C4442       C  0.56686374  0.85947708  0.61266233    -0.24400
H4443       H  0.96094768  0.93804868  0.61357704     0.04800
H4444       H  0.94672212  0.90821883  0.63457221     0.08000
H4445       H  0.94592021  0.90918403  0.59152386     0.08000
H4446       H  0.58108977  0.86819644  0.63138114     0.08000
H4447       H  0.57702203  0.86201160  0.58906559     0.08000
H4448       H  0.56431508  0.83640516  0.61705093     0.04800
C4449       C  0.70828747  0.50136968  0.57532782    -0.21000
C4450       C  0.68607684  0.99896281  0.59985230    -0.07600
C4451       C  0.69320791  0.00512512  0.63202708     0.13300
C4452       C  0.72279504  0.51147069  0.63880752    -0.21100
C4453       C  0.74373918  0.51492950  0.61545986    -0.07600
C4454       C  0.73641739  0.50914503  0.58323445     0.13300
C4455       C  0.75789249  0.51133932  0.55669934    -0.24400
H4456       H  0.70225954  0.99536315  0.55235177     0.14500
H4457       H  0.72832349  0.51569086  0.66338342     0.14600
C4458       C  0.67156643  0.00331773  0.65842269    -0.24400
H4459       H  0.74812708  0.50715329  0.53309512     0.04800
H4460       H  0.77511636  0.49543002  0.56010679     0.08000
H4461       H  0.76718846  0.53289578  0.55611417     0.08000
H4462       H  0.66471215  0.98101017  0.66158119     0.08000
H4463       H  0.65282617  0.01672356  0.65291660     0.08000
H4464       H  0.68041466  0.01069645  0.68150572     0.04800
C4465       C  0.64604277  0.86902253  0.61505072    -0.21000
C4466       C  0.63858793  0.87175549  0.58265360    -0.07600
C4467       C  0.63867331  0.84709763  0.56343297     0.13300
C4468       C  0.64640731  0.82079604  0.57687404    -0.21100
C4469       C  0.65363990  0.81802630  0.60934117    -0.07600
C4470       C  0.65328773  0.84263469  0.62861664     0.13300
C4471       C  0.66123358  0.84140740  0.66324760    -0.24400
H4472       H  0.64556570  0.88767449  0.63023239     0.14500
H4473       H  0.64671232  0.80208106  0.56176572     0.14600
C4474       C  0.63137833  0.84841804  0.52861359    -0.24400
H4475       H  0.66069808  0.86275122  0.67458431     0.04800
H4476       H  0.68314414  0.83270814  0.66583060     0.08000
H4477       H  0.64597645  0.82770423  0.67612789     0.08000
H4478       H  0.64546991  0.86390115  0.51661148     0.08000
H4479       H  0.60878920  0.85489107  0.52551460     0.08000
H4480       H  0.63421450  0.82749073  0.51672797     0.04800
loop_ 
_geom_bond_atom_site_label_1 
_geom_bond_atom_site_label_2 
_geom_bond_distance 
_geom_bond_site_symmetry_2 
_ccdc_geom_bond_type 
O1           C16   1.269       .  A
O1           Al9   1.956       .  S
C2           O12   1.256       .  A
C2            O3   1.269       .  A
C2         C1090   1.496       .  S
O3           Al5   1.933       .  S
O4            C6   1.269       .  A
O4           Al5   1.929       .  S
Al5        O1133   1.953       .  S
Al5        O1135   1.946       .  S
Al5          O14   1.781       .  S
C6           O19   1.265       .  A
C6         C1061   1.486       .  S
O7           C17   1.275       .  A
O7           Al9   1.979       .  S
O8           C21   1.255       .  A
O8          Al18   1.897       .  S
Al9          O22   1.879       .  S
Al9          O19   1.882       .  S
Al9          O14   1.769       .  S
O10          C17   1.260       .  A
O10         Al18   1.883       .  S
O11          C20   1.252       .  A
O11         Al18   1.838       .  S
O12         Al18   1.899       .  S
O13        C1140   1.271   1_545  A
O13       Al1125   1.952   1_545  S
O14         Al18   1.777       .  S
O15        C1136   1.271   1_545  A
O15       Al1125   1.948   1_545  S
C16        O1135   1.271       .  A
C16        C2149   1.533       .  S
C17        C1106   1.501       .  S
C20        O1133   1.271       .  A
C20        C2165   1.470       .  S
C21          O22   1.260       .  A
C21        C1074   1.443       .  S
O23          C38   1.269       .  A
O23         Al31   1.953       .  S
C24          O34   1.261       .  A
C24          O25   1.267       .  A
C24         C994   1.492       .  S
O25         Al27   1.928       .  S
O26          C28   1.265       .  A
O26         Al27   1.917       .  S
Al27         O35   1.945       .  S
Al27         O37   1.944       .  S
Al27         O36   1.782       .  S
C28          O41   1.261       .  A
C28         C962   1.482       .  S
O29          C39   1.274       .  A
O29         Al31   1.966       .  S
O30          C43   1.256       .  A
O30         Al40   1.905       .  S
Al31         O44   1.869       .  S
Al31         O41   1.878       .  S
Al31         O36   1.767       .  S
O32          C39   1.260       .  A
O32         Al40   1.890       .  S
O33          C42   1.253       .  A
O33         Al40   1.848       .  S
O34         Al40   1.915       .  S
O35          C42   1.268       .  A
O36         Al40   1.781       .  S
O37          C38   1.272       .  A
C38         C946   1.528       .  S
C39        C1013   1.496       .  S
C42         C978   1.465       .  S
C43          O44   1.257       .  A
C43        C1077   1.445       .  S
O45          C60   1.258       .  A
O45         Al53   1.878       .  S
C46          O56   1.269       .  A
C46          O47   1.254       .  A
C46        C1109   1.496       .  S
O47         Al49   1.888       .  S
O48          C50   1.265       .  A
O48         Al49   1.894       .  S
Al49         O57   1.842       .  S
Al49         O59   1.892       .  S
Al49         O58   1.783       .  S
C50          O63   1.274       .  A
C50         C997   1.495       .  S
O51          C61   1.258       .  A
O51         Al53   1.860       .  S
O52          C65   1.267       .  A
O52         Al62   1.942       .  S
Al53         O66   1.948       .  S
Al53         O63   1.961       .  S
Al53         O58   1.765       .  S
O54          C61   1.268       .  A
O54         Al62   1.919       .  S
O55          C64   1.270       .  A
O55         Al62   1.933       .  S
O56         Al62   1.951       .  S
O57          C64   1.255       .  A
O58         Al62   1.784       .  S
O59          C60   1.251       .  A
C60         C930   1.442       .  S
C61         C917   1.462       .  S
C64         C898   1.448       .  S
C65          O66   1.266       .  A
C65         C882   1.526       .  S
O67          C82   1.260       .  A
O67         Al75   1.884       .  S
C68        O1198   1.269       .  A
C68        O1189   1.259       .  A
C68        C1010   1.506       .  S
O69        C1188   1.257   1_545  A
O69         Al71   1.909       .  S
O70          C72   1.260       .  A
O70         Al71   1.882       .  S
Al71         O79   1.839       .  S
Al71         O81   1.897       .  S
Al71         O80   1.778       .  S
C72          O85   1.277       .  A
C72        C1093   1.494       .  S
O73          C83   1.259       .  A
O73         Al75   1.873       .  S
O74          C87   1.267       .  A
O74         Al84   1.929       .  S
Al75         O88   1.965       .  S
Al75         O85   1.979       .  S
Al75         O80   1.768       .  S
O76          C83   1.268       .  A
O76         Al84   1.919       .  S
O77          C86   1.271       .  A
O77         Al84   1.945       .  S
O78        C1188   1.267   1_545  A
O78         Al84   1.936       .  S
O79          C86   1.251       .  A
O80         Al84   1.778       .  S
O81          C82   1.254       .  A
C82         C933   1.445       .  S
C83         C866   1.468       .  S
C86         C853   1.459       .  S
C87          O88   1.271       .  A
C87         C834   1.529       .  S
O89         C104   1.261       .  A
O89         Al97   1.868       .  S
C90         O100   1.267       .  A
C90          O91   1.259       .  A
C90         C802   1.494       .  S
O91         Al93   1.906       .  S
O92          C94   1.259       .  A
O92         Al93   1.889       .  S
Al93        O101   1.841       .  S
Al93        O103   1.912       .  S
Al93        O102   1.781       .  S
C94         O107   1.272       .  A
C94         C821   1.499       .  S
O95         C105   1.261       .  A
O95         Al97   1.861       .  S
O96        C1229   1.265   1_545  A
O96       Al1226   1.928   1_545  S
Al97        O110   1.972       .  S
Al97        O107   1.973       .  S
Al97        O102   1.775       .  S
O98         C105   1.274       .  A
O98        Al106   1.936       .  S
O99        C1228   1.269       .  A
O99       Al1226   1.948   1_545  S
O100       Al106   1.931       .  S
O101        C108   1.252       .  A
O102       Al106   1.782       .  S
O103        C104   1.260       .  A
C104        C786   1.443       .  S
C105        C770   1.468       .  S
Al106      O1216   1.931       .  S
Al106      O1219   1.933       .  S
C108       O1219   1.267       .  A
C108       C1989   1.461       .  S
C109        O110   1.269       .  A
C109       O1216   1.264       .  A
C109       C1874   1.527       .  S
O111        C126   1.258       .  A
O111       Al119   1.872       .  S
C112        O122   1.270       .  A
C112        O113   1.258       .  A
C112        C722   1.499       .  S
O113       Al115   1.907       .  S
O114        C116   1.258       .  A
O114       Al115   1.883       .  S
Al115       O123   1.841       .  S
Al115       O125   1.898       .  S
Al115       O124   1.775       .  S
C116        O129   1.276       .  A
C116        C741   1.498       .  S
O117        C127   1.263       .  A
O117       Al119   1.875       .  S
O118        C131   1.270       .  A
O118       Al128   1.942       .  S
Al119       O132   1.966       .  S
Al119       O129   1.982       .  S
Al119       O124   1.767       .  S
O120        C127   1.266       .  A
O120       Al128   1.917       .  S
O121        C130   1.268       .  A
O121       Al128   1.934       .  S
O122       Al128   1.940       .  S
O123        C130   1.251       .  A
O124       Al128   1.778       .  S
O125        C126   1.254       .  A
C126        C789   1.441       .  S
C127        C706   1.482       .  S
C130        C914   1.456       .  S
C131        O132   1.271       .  A
C131        C690   1.525       .  S
O133        C148   1.265       .  A
O133       Al141   1.939       .  S
C134       O1264   1.258       .  A
C134       O1255   1.271       .  A
C134        C738   1.487       .  S
O135       C1254   1.272   1_545  A
O135       Al137   1.963       .  S
O136        C138   1.267       .  A
O136       Al137   1.903       .  S
Al137       O145   1.925       .  S
Al137       O147   1.944       .  S
Al137       O146   1.792       .  S
C138        O151   1.257       .  A
C138       C1042   1.453       .  S
O139        C149   1.263       .  A
O139       Al141   1.934       .  S
O140        C153   1.256       .  A
O140       Al150   1.891       .  S
Al141       O154   1.874       .  S
Al141       O151   1.872       .  S
Al141       O146   1.790       .  S
O142        C149   1.250       .  A
O142       Al150   1.875       .  S
O143        C152   1.252       .  A
O143       Al150   1.856       .  S
O144       C1254   1.260   1_545  A
O144       Al150   1.895       .  S
O145        C152   1.263       .  A
O146       Al150   1.802       .  S
O147        C148   1.265       .  A
C148        C885   1.532       .  S
C149       C3045   1.480   1_455  S
C152        C658   1.454       .  S
C153        O154   1.260       .  A
C153        C677   1.450       .  S
O155        C170   1.275       .  A
O155       Al163   1.974       .  S
C156        O166   1.262       .  A
C156        O157   1.270       .  A
C156        C818   1.501       .  S
O157       Al159   1.939       .  S
O158        C160   1.265       .  A
O158       Al159   1.913       .  S
Al159       O167   1.942       .  S
Al159       O169   1.926       .  S
Al159       O168   1.785       .  S
C160        O173   1.257       .  A
C160        C981   1.473       .  S
O161       C2411   1.277       .  A
O161       Al163   1.975       .  S
O162        C175   1.252       .  A
O162       Al172   1.886       .  S
Al163       O176   1.897       .  S
Al163       O173   1.877       .  S
Al163       O168   1.773       .  S
O164       C2411   1.263       .  A
O164       Al172   1.888       .  S
O165        C174   1.254       .  A
O165       Al172   1.857       .  S
O166       Al172   1.919       .  S
O167        C174   1.268       .  A
O168       Al172   1.773       .  S
O169        C170   1.270       .  A
C170        C837   1.529       .  S
C171       O2401   1.277       .  A
C171       O2404   1.263   1_455  A
C171        C725   1.495       .  S
C174        C642   1.456       .  S
C175        O176   1.260       .  A
C175        C674   1.453       .  S
O177        C192   1.270       .  A
O177       Al185   1.969       .  S
C178        O188   1.265       .  A
C178        O179   1.267       .  A
C178        C613   1.513       .  S
O179       Al181   1.932       .  S
O180        C182   1.269   1_554  A
O180       Al181   1.931       .  S
Al181       O189   1.949       .  S
Al181       O191   1.940       .  S
Al181       O190   1.781       .  S
C182        O195   1.261   1_556  A
C182        C645   1.482       .  S
O183        C193   1.273       .  A
O183       Al185   1.970       .  S
O184        C197   1.262       .  A
O184       Al194   1.927       .  S
Al185       O198   1.872       .  S
Al185       O195   1.868       .  S
Al185       O190   1.772       .  S
O186        C193   1.258       .  A
O186       Al194   1.887       .  S
O187        C196   1.250       .  A
O187       Al194   1.837       .  S
O188       Al194   1.933       .  S
O189        C196   1.269       .  A
O190       Al194   1.778       .  S
O191        C192   1.269       .  A
C192        C693   1.526   1_554  S
C193        C629   1.497       .  S
C196        C581   1.468       .  S
C197        O198   1.259       .  A
C197        C594   1.453       .  S
O199        C214   1.256       .  A
O199       Al207   1.861       .  S
C200        O210   1.268       .  A
C200        O201   1.261       .  A
C200        C562   1.491       .  S
O201       Al203   1.911       .  S
O202        C204   1.264       .  A
O202       Al203   1.898       .  S
Al203       O211   1.855       .  S
Al203       O213   1.893       .  S
Al203       O212   1.774       .  S
C204        O217   1.271       .  A
C204       C2850   1.495   1_455  S
O205        C215   1.254       .  A
O205       Al207   1.858       .  S
O206        C219   1.271       .  A
O206       Al216   1.943       .  S
Al207       O220   1.949       .  S
Al207       O217   1.954       .  S
Al207       O212   1.761       .  S
O208        C215   1.271       .  A
O208       Al216   1.931       .  S
O209        C218   1.270       .  A
O209       Al216   1.948       .  S
O210       Al216   1.927       .  S
O211        C218   1.253       .  A
O212       Al216   1.781       .  S
O213        C214   1.256       .  A
C214        C546   1.436       .  S
C215        C533   1.471       .  S
C218        C709   1.458       .  S
C219        O220   1.268       .  A
C219        C514   1.525       .  S
O221        C236   1.270       .  A
O221       Al229   1.959       .  S
C222        O232   1.262       .  A
C222        O223   1.268       .  A
C222        C501   1.496       .  S
O223       Al225   1.934       .  S
O224        C226   1.273   1_554  A
O224       Al225   1.940       .  S
Al225       O233   1.958       .  S
Al225       O235   1.933       .  S
Al225       O234   1.776       .  S
C226        O239   1.259   1_556  A
C226        C661   1.480       .  S
O227        C237   1.274       .  A
O227       Al229   1.970       .  S
O228        C241   1.260       .  A
O228       Al238   1.917       .  S
Al229       O242   1.879       .  S
Al229       O239   1.873       .  S
Al229       O234   1.768       .  S
O230        C237   1.260       .  A
O230       Al238   1.883       .  S
O231        C240   1.252       .  A
O231       Al238   1.845       .  S
O232       Al238   1.922       .  S
O233        C240   1.272       .  A
O234       Al238   1.774       .  S
O235        C236   1.268       .  A
C236        C757   1.518   1_554  S
C237        C565   1.494       .  S
C240        C485   1.462       .  S
C241        O242   1.259       .  A
C241        C597   1.454       .  S
O243        C258   1.258       .  A
O243       Al251   1.881       .  S
C244        O254   1.269       .  A
C244        O245   1.253       .  A
C244        C626   1.500       .  S
O245      Al1367   1.886   1_545  S
O246       C2488   1.262       .  A
O246      Al1367   1.894   1_545  S
Al247       O255   1.830       .  S
Al247       O257   1.895       .  S
Al247      O1365   1.893       .  S
Al247      O1366   1.887       .  S
Al247       O256   1.778       .  S
C248       O2486   1.263   1_455  A
C248       O1381   1.275   1_545  A
C248        C498   1.504       .  S
O249       C1379   1.259       .  A
O249       Al251   1.869       .  S
O250        C263   1.269       .  A
O250       Al260   1.944       .  S
Al251       O264   1.957       .  S
Al251      O2501   1.973       .  S
Al251       O256   1.769       .  S
O252        C259   1.271   1_565  A
O252      Al1380   1.920       .  S
O253        C262   1.269       .  A
O253       Al260   1.945       .  S
O254      Al1380   1.945   1_545  S
O255        C262   1.254       .  A
O256       Al260   1.781       .  S
O257        C258   1.255       .  A
C258        C549   1.440       .  S
C259       O1369   1.260   1_545  A
C259        C469   1.467       .  S
Al260      O1372   1.918       .  S
Al260      O1374   1.947       .  S
O261       C1368   1.273       .  A
O261      Al2491   1.976   1_455  S
C262        C773   1.461       .  S
C263        O264   1.268       .  A
C263        C450   1.534       .  S
O265        C280   1.258       .  A
O265       Al273   1.877       .  S
C266        O276   1.268       .  A
C266        O267   1.258       .  A
C266        C437   1.494       .  S
O267       Al269   1.904       .  S
O268        C270   1.263       .  A
O268       Al269   1.893       .  S
Al269       O277   1.850       .  S
Al269       O279   1.895       .  S
Al269       O278   1.783       .  S
C270        O283   1.277       .  A
C270        C418   1.507       .  S
O271        C281   1.263       .  A
O271       Al273   1.882       .  S
O272        C285   1.268       .  A
O272       Al282   1.935       .  S
Al273       O286   1.962       .  S
Al273       O283   1.983       .  S
Al273       O278   1.771       .  S
O274        C281   1.266       .  A
O274       Al282   1.919       .  S
O275        C284   1.266       .  A
O275       Al282   1.934       .  S
O276       Al282   1.929       .  S
O277        C284   1.254       .  A
O278       Al282   1.784       .  S
O279        C280   1.254       .  A
C280        C405   1.443       .  S
C281        C850   1.476       .  S
C284        C466   1.460       .  S
C285        O286   1.270       .  A
C285       C1026   1.529       .  S
O287        C302   1.258       .  A
O287       Al295   1.871       .  S
C288        O298   1.266       .  A
C288        O289   1.259       .  A
C288        C370   1.492       .  S
O289       Al291   1.896       .  S
O290        C292   1.261       .  A
O290       Al291   1.890       .  S
Al291       O299   1.850       .  S
Al291       O301   1.895       .  S
Al291       O300   1.781       .  S
C292        O305   1.271       .  A
C292        C389   1.493       .  S
O293        C303   1.262       .  A
O293       Al295   1.875       .  S
O294        C307   1.271       .  A
O294       Al304   1.942       .  S
Al295       O308   1.943       .  S
Al295       O305   1.957       .  S
Al295       O300   1.768       .  S
O296        C303   1.262       .  A
O296       Al304   1.901       .  S
O297        C306   1.264       .  A
O297       Al304   1.930       .  S
O298       Al304   1.928       .  S
O299        C306   1.254       .  A
O300       Al304   1.785       .  S
O301        C302   1.254       .  A
C302        C402   1.439       .  S
C303        C901   1.471       .  S
C306        C530   1.455       .  S
C307        O308   1.266       .  A
C307        C949   1.525       .  S
O309        C324   1.269       .  A
O309       Al317   1.957       .  S
C310        O320   1.262       .  A
C310        O311   1.269       .  A
C310        C421   1.511       .  S
O311       Al313   1.944       .  S
O312        C314   1.268       .  A
O312       Al313   1.918       .  S
Al313       O321   1.946       .  S
Al313       O323   1.943       .  S
Al313       O322   1.781       .  S
C314        O327   1.260       .  A
C314        C578   1.468       .  S
O315        C325   1.274       .  A
O315       Al317   1.963       .  S
O316        C329   1.255       .  A
O316       Al326   1.903       .  S
Al317       O330   1.894       .  S
Al317       O327   1.880       .  S
Al317       O322   1.771       .  S
O318        C325   1.263       .  A
O318       Al326   1.884       .  S
O319        C328   1.252       .  A
O319       Al326   1.849       .  S
O320       Al326   1.926       .  S
O321        C328   1.270       .  A
O322       Al326   1.779       .  S
O323        C324   1.271       .  A
C324        C453   1.534       .  S
C325        C373   1.488       .  S
C328        C965   1.455       .  S
C329        O330   1.261       .  A
C329        C354   1.455       .  S
O331        C346   1.270       .  A
O331       Al339   1.953       .  S
C332        O342   1.261       .  A
C332        O333   1.271       .  A
C332        C386   1.485       .  S
O333      Al1455   1.952   1_545  S
O334        C336   1.265       .  A
O334      Al1455   1.908   1_545  S
Al335       O343   1.923       .  S
Al335       O345   1.915       .  S
Al335      O1453   1.959       .  S
Al335      O1454   1.906       .  S
Al335       O344   1.794       .  S
C336       O1469   1.255   1_545  A
C336        C482   1.469       .  S
O337       C1467   1.268       .  A
O337       Al339   1.960       .  S
O338        C351   1.259       .  A
O338       Al348   1.893       .  S
Al339       O352   1.883       .  S
Al339       O349   1.870       .  S
Al339       O344   1.791       .  S
O340       C1467   1.248       .  A
O340       Al348   1.851       .  S
O341        C350   1.248       .  A
O341       Al348   1.847       .  S
O342      Al1468   1.888   1_545  S
O343        C350   1.259       .  A
O344       Al348   1.793       .  S
O345        C346   1.263       .  A
C346        C517   1.522       .  S
C347       O1457   1.268   1_545  A
C347       O1460   1.248       .  A
C347        C434   1.506       .  S
Al348      O1462   1.883       .  S
O349       C1456   1.256       .  A
C350       C1058   1.455       .  S
C351        O352   1.262       .  A
C351        C357   1.451       .  S
C353        C354   1.395       .  A
C353        C358   1.392       .  A
C353        H360   1.085       .  S
C354        C355   1.414       .  A
C355        C356   1.398       .  A
C355        C362   1.506       .  S
C356        C357   1.396       .  A
C356        H361   1.083       .  S
C357        C358   1.411       .  A
C358        C359   1.505       .  S
C359        H363   1.110       .  S
C359        H364   1.108       .  S
C359        H365   1.111       .  S
C362        H366   1.110       .  S
C362        H367   1.108       .  S
C362        H368   1.111       .  S
C369        C370   1.411       .  A
C369        C374   1.405       .  A
C369        H376   1.083       .  S
C370        C371   1.413       .  A
C371        C372   1.408       .  A
C371        C378   1.507       .  S
C372        C373   1.410       .  A
C372        H377   1.084       .  S
C373        C374   1.410       .  A
C374        C375   1.506       .  S
C375        H379   1.111       .  S
C375        H380   1.109       .  S
C375        H381   1.109       .  S
C378        H382   1.111       .  S
C378        H383   1.110       .  S
C378        H384   1.111       .  S
C385        C386   1.407       .  A
C385        C390   1.410       .  A
C385        H392   1.085       .  S
C386        C387   1.408       .  A
C387        C388   1.409       .  A
C387        C394   1.506       .  S
C388        C389   1.411       .  A
C388        H393   1.084       .  S
C389        C390   1.414       .  A
C390        C391   1.507       .  S
C391        H395   1.111       .  S
C391        H396   1.110       .  S
C391        H397   1.110       .  S
C394        H398   1.110       .  S
C394        H399   1.110       .  S
C394        H400   1.111       .  S
C401        C402   1.397       .  A
C401       C2646   1.392   1_455  A
C401        H408   1.085       .  S
C402        C403   1.408       .  A
C403        C404   1.390       .  A
C403        C410   1.507       .  S
C404       C2645   1.395   1_455  A
C404        H409   1.085       .  S
C405        C406   1.409       .  A
C405       C2644   1.398       .  A
C406       C2641   1.391       .  A
C406        C407   1.507       .  S
C407        H411   1.111       .  S
C407        H412   1.108       .  S
C407        H413   1.110       .  S
C410        H414   1.107       .  S
C410        H415   1.110       .  S
C410        H416   1.111       .  S
C417        C418   1.412       .  A
C417        C422   1.414       .  A
C417        H424   1.084       .  S
C418        C419   1.414       .  A
C419        C420   1.416       .  A
C419        C426   1.506       .  S
C420        C421   1.415       .  A
C420        H425   1.084       .  S
C421        C422   1.416       .  A
C422        C423   1.507       .  S
C423        H427   1.111       .  S
C423        H428   1.110       .  S
C423        H429   1.111       .  S
C426        H430   1.110       .  S
C426        H431   1.110       .  S
C426        H432   1.110       .  S
C433        C434   1.419       .  A
C433        C438   1.403       .  A
C433        H440   1.083       .  S
C434        C435   1.413       .  A
C435        C436   1.413       .  A
C435       C1562   1.505       .  S
C436        C437   1.414       .  A
C436        H441   1.083       .  S
C437        C438   1.408       .  A
C438        C439   1.509       .  S
C439        H443   1.111       .  S
C439        H444   1.111       .  S
C439        H445   1.110       .  S
C442       C1555   1.505       .  S
C442        H446   1.110       .  S
C442        H447   1.110       .  S
C442        H448   1.111       .  S
C449        C450   1.411       .  A
C449        C454   1.422       .  A
C449        H456   1.084       .  S
C450        C451   1.428       .  A
C451        C452   1.423       .  A
C451        C458   1.507       .  S
C452        C453   1.411       .  A
C452        H457   1.084       .  S
C453        C454   1.429       .  A
C454        C455   1.508       .  S
C455        H459   1.111       .  S
C455        H460   1.110       .  S
C455        H461   1.110       .  S
C458        H462   1.110       .  S
C458        H463   1.110       .  S
C458        H464   1.111       .  S
C465        C466   1.403       .  A
C465        C470   1.398       .  A
C465        H472   1.085       .  S
C466        C467   1.408   1_545  A
C467       C1588   1.397       .  A
C467       C1594   1.507       .  S
C468       C1587   1.397       .  A
C468       C1589   1.403       .  A
C468        H473   1.085       .  S
C469        C470   1.412       .  A
C469       C1588   1.405   1_545  A
C470        C471   1.507       .  S
C471        H475   1.111       .  S
C471        H476   1.110       .  S
C471        H477   1.109       .  S
C474       C1587   1.507       .  S
C474        H478   1.108       .  S
C474        H479   1.110       .  S
C474        H480   1.111       .  S
C481        C482   1.401       .  A
C481        C486   1.400       .  A
C481        H488   1.085       .  S
C482       C1603   1.416   1_545  A
C483       C1602   1.414       .  A
C483       C1604   1.400       .  A
C483        C490   1.507       .  S
C484        C485   1.398       .  A
C484       C1603   1.401   1_545  A
C484       H1609   1.084   1_545  S
C485        C486   1.415       .  A
C486        C487   1.508       .  S
C487        H491   1.110       .  S
C487        H492   1.111       .  S
C487        H493   1.110       .  S
H489       C1604   1.084       .  S
C490        H494   1.110       .  S
C490        H495   1.108       .  S
C490        H496   1.111       .  S
C497        C498   1.413       .  A
C497        C502   1.411       .  A
C497        H504   1.084       .  S
C498        C499   1.417       .  A
C499        C500   1.412       .  A
C499       C1626   1.506       .  S
C500        C501   1.409       .  A
C500        H505   1.084       .  S
C501        C502   1.412       .  A
C502        C503   1.507       .  S
C503        H507   1.111       .  S
C503        H508   1.110       .  S
C503        H509   1.111       .  S
C506       C1619   1.506       .  S
C506        H510   1.110       .  S
C506        H512   1.110       .  S
C506       H1631   1.109       .  S
H511       C1626   1.110       .  S
C513        C514   1.413       .  A
C513        C518   1.423       .  A
C513        H520   1.083       .  S
C514        C515   1.426       .  A
C515        C516   1.415       .  A
C515        C522   1.509       .  S
C516        C517   1.410       .  A
C516        H521   1.084       .  S
C517        C518   1.422       .  A
C518        C519   1.506       .  S
C519        H523   1.111       .  S
C519        H524   1.110       .  S
C519        H525   1.110       .  S
C522        H526   1.110       .  S
C522        H527   1.110       .  S
C522        H528   1.111       .  S
C529        C530   1.400       .  A
C529        C534   1.398       .  A
C529        H536   1.085       .  S
C530        C531   1.407       .  A
C531        C532   1.396       .  A
C531        C538   1.506       .  S
C532        C533   1.405       .  A
C532        H537   1.085       .  S
C533        C534   1.417       .  A
C534        C535   1.507       .  S
C535        H539   1.111       .  S
C535        H540   1.110       .  S
C535        H541   1.109       .  S
C538        H542   1.104       .  S
C538        H543   1.110       .  S
C538        H544   1.111       .  S
C545        C546   1.401       .  A
C545       C2790   1.391   1_455  A
C545       H2792   1.085   1_455  S
C546        C547   1.407       .  A
C547        C548   1.386       .  A
C547        C554   1.507       .  S
C548       C2789   1.395   1_455  A
C548        H553   1.086       .  S
C549        C550   1.404       .  A
C549       C2788   1.399       .  A
C550       C2785   1.393       .  A
C550        C551   1.506       .  S
C551        H555   1.111       .  S
C551        H556   1.110       .  S
C551        H557   1.110       .  S
H552       C2785   1.085       .  S
C554        H558   1.104       .  S
C554        H559   1.109       .  S
C554        H560   1.111       .  S
C561        C562   1.411       .  A
C561        C566   1.410       .  A
C561        H568   1.083       .  S
C562        C563   1.411       .  A
C563        C564   1.406       .  A
C563        C570   1.507       .  S
C564        C565   1.411       .  A
C564        H569   1.083       .  S
C565        C566   1.413       .  A
C566        C567   1.507       .  S
C567        H571   1.109       .  S
C567        H572   1.110       .  S
C567        H573   1.109       .  S
C570        H574   1.111       .  S
C570        H575   1.110       .  S
C570        H576   1.111       .  S
C577        C578   1.405       .  A
C577        C582   1.400       .  A
C577        H584   1.084       .  S
C578        C579   1.408       .  A
C579        C580   1.400       .  A
C579        C586   1.506       .  S
C580        C581   1.409       .  A
C580        H585   1.085       .  S
C581        C582   1.409       .  A
C582        C583   1.507       .  S
C583        H587   1.111       .  S
C583        H588   1.110       .  S
C583        H589   1.110       .  S
C586        H590   1.108       .  S
C586        H591   1.111       .  S
C586        H592   1.111       .  S
C593        C594   1.399       .  A
C593        C598   1.397       .  A
C593        H600   1.085       .  S
C594        C595   1.410       .  A
C595        C596   1.395       .  A
C595        C602   1.506       .  S
C596        C597   1.398       .  A
C596        H601   1.085       .  S
C597        C598   1.410       .  A
C598        C599   1.507       .  S
C599        H603   1.111       .  S
C599        H604   1.110       .  S
C599        H605   1.109       .  S
C602        H606   1.109       .  S
C602        H607   1.108       .  S
C602        H608   1.111       .  S
C609        C610   1.408       .  A
C609        C614   1.415       .  A
C609        H616   1.084       .  S
C610       C2444   1.503       .  S
C610        C611   1.413       .  A
C611        C612   1.415       .  A
C611        C618   1.505       .  S
C612        C613   1.413       .  A
C612        H617   1.083       .  S
C613        C614   1.421       .  A
C614        C615   1.507       .  S
C615        H619   1.111       .  S
C615        H620   1.110       .  S
C615        H621   1.111       .  S
C618        H624   1.111       .  S
C618       H2862   1.109       .  S
C618       H2863   1.110       .  S
H622       C2858   1.109       .  S
H623       C2858   1.109       .  S
C625        C626   1.401       .  A
C625        C630   1.410       .  A
C625        H632   1.084       .  S
C626        C627   1.428       .  A
C627        C628   1.410       .  A
C627        C634   1.510       .  S
C628        C629   1.400       .  A
C628        H633   1.084       .  S
C629        C630   1.425       .  A
C630        C631   1.508       .  S
C631        H635   1.111       .  S
C631        H636   1.108       .  S
C631        H637   1.110       .  S
C634        H638   1.107       .  S
C634        H639   1.110       .  S
C634        H640   1.111       .  S
C641        C642   1.397       .  A
C641        C646   1.400       .  A
C641        H648   1.085       .  S
C642        C643   1.406       .  A
C643        C644   1.397       .  A
C643        C650   1.507       .  S
C644        C645   1.408       .  A
C644        H649   1.084       .  S
C645        C646   1.423       .  A
C646        C647   1.508       .  S
C647        H651   1.111       .  S
C647        H652   1.110       .  S
C647        H653   1.107       .  S
C650        H654   1.107       .  S
C650        H655   1.110       .  S
C650        H656   1.111       .  S
C657        C658   1.402       .  A
C657        C662   1.404       .  A
C657        H664   1.085       .  S
C658        C659   1.407       .  A
C659        C660   1.399       .  A
C659        C666   1.508       .  S
C660        C661   1.407       .  A
C660        H665   1.084       .  S
C661        C662   1.417       .  A
C662        C663   1.508       .  S
C663        H667   1.111       .  S
C663        H668   1.109       .  S
C663        H669   1.111       .  S
C666        H670   1.110       .  S
C666        H671   1.110       .  S
C666        H672   1.111       .  S
C673        C678   1.396       .  A
C673       C2914   1.400       .  A
C673        H680   1.085       .  S
C674        C675   1.406       .  A
C674       C2913   1.399       .  A
C675       C2916   1.402       .  A
C675        C682   1.503       .  S
C676        C677   1.400       .  A
C676       C2915   1.399   1_455  A
C676       H2921   1.084       .  S
C677        C678   1.407       .  A
C678        C679   1.507       .  S
C679        H683   1.111       .  S
C679        H684   1.109       .  S
C679        H685   1.110       .  S
H681       C2916   1.082       .  S
C682        H686   1.110       .  S
C682        H687   1.110       .  S
C682        H688   1.110       .  S
C689        C690   1.413       .  A
C689        C694   1.421   1_556  A
C689        H696   1.084       .  S
C690        C691   1.421       .  A
C691        C692   1.422       .  A
C691        C698   1.507       .  S
C692        C693   1.414       .  A
C692        H697   1.084       .  S
C693        C694   1.421   1_556  A
C694        C695   1.506       .  S
C695        H699   1.111       .  S
C695        H700   1.109       .  S
C695        H701   1.111       .  S
C698        H702   1.111       .  S
C698        H703   1.109       .  S
C698        H704   1.111       .  S
C705        C706   1.405   1_554  A
C705        C710   1.395       .  A
C705        H712   1.084   1_554  S
C706        C707   1.425   1_556  A
C707        C708   1.401       .  A
C707        C714   1.509       .  S
C708        C709   1.397       .  A
C708        H713   1.084       .  S
C709        C710   1.408       .  A
C710        C711   1.502       .  S
C711        H715   1.110       .  S
C711        H716   1.110       .  S
C711        H717   1.109       .  S
C714        H718   1.107   1_554  S
C714        H719   1.110   1_554  S
C714        H720   1.111       .  S
C721        C722   1.401       .  A
C721        C726   1.409       .  A
C721        H728   1.084       .  S
C722        C723   1.426       .  A
C723        C724   1.410       .  A
C723        C730   1.507       .  S
C724        C725   1.401       .  A
C724        H729   1.084       .  S
C725        C726   1.424       .  A
C726        C727   1.508       .  S
C727        H731   1.111       .  S
C727        H732   1.109       .  S
C727       H2973   1.110       .  S
C730        H734   1.106       .  S
C730        H735   1.110       .  S
C730        H736   1.111       .  S
H733       C2967   1.110       .  S
C737        C738   1.396       .  A
C737        C742   1.408       .  A
C737        H744   1.085       .  S
C738        C739   1.419       .  A
C739        C740   1.411       .  A
C739        C746   1.507       .  S
C740        C741   1.403       .  A
C740        H745   1.085       .  S
C741        C742   1.428       .  A
C742        C743   1.508       .  S
C743        H747   1.107       .  S
C743        H748   1.111       .  S
C743        H749   1.109       .  S
C746        H750   1.110       .  S
C746        H751   1.108       .  S
C746        H752   1.111       .  S
C753       C1874   1.413       .  A
C753       C1878   1.423   1_556  A
C753        H760   1.084       .  S
C754       C1229   1.519   1_545  S
C754        C755   1.421       .  A
C754       C1873   1.412   1_545  A
C755        C756   1.418       .  A
C755        C762   1.507       .  S
C756        C757   1.412       .  A
C756        H761   1.084       .  S
C757        C758   1.421   1_556  A
C758       C1873   1.419   1_544  A
C758       C1879   1.507   1_545  S
C759       C1878   1.507       .  S
C759        H763   1.111       .  S
C759        H765   1.111       .  S
C759       H1884   1.109       .  S
C762        H766   1.110       .  S
C762        H767   1.110       .  S
C762        H768   1.111       .  S
H764       C1879   1.109       .  S
C769        C770   1.407   1_554  A
C769        C774   1.400       .  A
C769        H776   1.084       .  S
C770        C771   1.412   1_556  A
C771        C772   1.396       .  A
C771        C778   1.510   1_554  S
C772        C773   1.405       .  A
C772        H777   1.084       .  S
C773        C774   1.407       .  A
C774        C775   1.508       .  S
C775        H779   1.111       .  S
C775        H780   1.108       .  S
C775        H781   1.110       .  S
C778        H782   1.111       .  S
C778        H783   1.109       .  S
C778        H784   1.111   1_556  S
C785        C786   1.398       .  A
C785        C790   1.392       .  A
C785        H792   1.085       .  S
C786        C787   1.409       .  A
C787        C788   1.391       .  A
C787        C794   1.507       .  S
C788        C789   1.397       .  A
C788        H793   1.085       .  S
C789        C790   1.407       .  A
C790        C791   1.508       .  S
C791        H795   1.111       .  S
C791        H796   1.110       .  S
C791        H797   1.109       .  S
C794        H798   1.108       .  S
C794        H799   1.110       .  S
C794        H800   1.111       .  S
C801        C806   1.404       .  A
C801       C1922   1.404   1_545  A
C801        H808   1.084       .  S
C802        C803   1.418       .  A
C802       C1921   1.406       .  A
C803        C804   1.412       .  A
C803        C810   1.507       .  S
C804       C1925   1.405       .  A
C804       H3049   1.084       .  S
C805       C2389   1.492       .  S
C805        C806   1.418       .  A
C805       C1924   1.400       .  A
C806        C807   1.505       .  S
C807        H811   1.111       .  S
C807        H812   1.109       .  S
C807        H813   1.109       .  S
H809       C3044   1.084   1_455  S
C810        H814   1.109       .  S
C810        H815   1.110       .  S
C810        H816   1.111       .  S
C817        C818   1.413       .  A
C817        C822   1.412       .  A
C817        H824   1.083       .  S
C818        C819   1.414       .  A
C819        C820   1.411       .  A
C819        C826   1.507       .  S
C820        C821   1.411       .  A
C820        H825   1.084       .  S
C821        C822   1.412       .  A
C822        C823   1.506       .  S
C823        H827   1.108       .  S
C823        H828   1.110       .  S
C823        H829   1.110       .  S
C826        H830   1.110       .  S
C826        H831   1.110       .  S
C826        H832   1.111       .  S
C833        C834   1.413       .  A
C833        C838   1.422       .  A
C833        H840   1.083       .  S
C834        C835   1.425       .  A
C835        C836   1.420       .  A
C835        C842   1.507       .  S
C836        C837   1.412       .  A
C836        H841   1.083       .  S
C837        C838   1.426       .  A
C838        C839   1.507       .  S
C839        H843   1.111       .  S
C839        H844   1.110       .  S
C839        H845   1.110       .  S
C842        H846   1.110       .  S
C842        H847   1.110       .  S
C842        H848   1.111       .  S
C849        C850   1.402       .  A
C849        C854   1.399       .  A
C849        H856   1.084       .  S
C850        C851   1.423       .  A
C851        C852   1.396       .  A
C851        C858   1.502       .  S
C852        C853   1.390       .  A
C852        H857   1.083       .  S
C853        C854   1.414       .  A
C854        C855   1.508       .  S
C855        H859   1.111       .  S
C855        H860   1.110       .  S
C855        H861   1.107       .  S
C858        H862   1.098       .  S
C858        H863   1.109       .  S
C858        H864   1.111       .  S
C865        C866   1.406       .  A
C865       C1990   1.400       .  A
C865        H872   1.085       .  S
C866        C867   1.410       .  A
C867        C868   1.399       .  A
C867        C874   1.508   1_545  S
C868        C869   1.407       .  A
C868        H873   1.085   1_545  S
C869       C1228   1.466       .  S
C869       C1990   1.409       .  A
C870       C1985   1.394       .  A
C870       C1989   1.408       .  A
C870        C871   1.505       .  S
C871        H875   1.111       .  S
C871        H876   1.108       .  S
C871        H877   1.110       .  S
C874        H878   1.111       .  S
C874        H879   1.110   1_565  S
C874        H880   1.111       .  S
C881        C882   1.411       .  A
C881        C886   1.423       .  A
C881        H888   1.083       .  S
C882        C883   1.422       .  A
C883        C884   1.421       .  A
C883        C890   1.508       .  S
C884        C885   1.415       .  A
C884        H889   1.083       .  S
C885        C886   1.426       .  A
C886        C887   1.507       .  S
C887        H891   1.111       .  S
C887        H892   1.110       .  S
C887        H893   1.110       .  S
C890        H894   1.109       .  S
C890        H895   1.111       .  S
C890        H896   1.111       .  S
C897        C898   1.394       .  A
C897        C902   1.395       .  A
C897        H904   1.086       .  S
C898        C899   1.409       .  A
C899        C900   1.394       .  A
C899        C906   1.507       .  S
C900        C901   1.403       .  A
C900        H905   1.085       .  S
C901        C902   1.424       .  A
C902        C903   1.509       .  S
C903        H907   1.111       .  S
C903        H908   1.104       .  S
C903        H909   1.110       .  S
C906        H910   1.110       .  S
C906        H911   1.111       .  S
C906        H912   1.110       .  S
C913        C914   1.395       .  A
C913        C918   1.395       .  A
C913        H920   1.085       .  S
C914        C915   1.414       .  A
C915        C916   1.394       .  A
C915        C922   1.507       .  S
C916        C917   1.399       .  A
C916        H921   1.085       .  S
C917        C918   1.416       .  A
C918        C919   1.503       .  S
C919        H923   1.111       .  S
C919        H924   1.103       .  S
C919        H925   1.109       .  S
C922        H926   1.110       .  S
C922        H927   1.111       .  S
C922        H928   1.110       .  S
C929        C930   1.393       .  A
C929        C934   1.389       .  A
C929        H936   1.085       .  S
C930        C931   1.409       .  A
C931        C932   1.392       .  A
C931        C938   1.506       .  S
C932        C933   1.396       .  A
C932        H937   1.084       .  S
C933        C934   1.411       .  A
C934        C935   1.505       .  S
C935        H939   1.111       .  S
C935        H940   1.108       .  S
C935        H941   1.106       .  S
C938        H942   1.106       .  S
C938        H943   1.110       .  S
C938        H944   1.111       .  S
C945        C946   1.408       .  A
C945       C3190   1.420       .  A
C945        H952   1.083       .  S
C946       C3187   1.429       .  A
C947        C948   1.419       .  A
C947       C3186   1.427   1_455  A
C947        C954   1.508       .  S
C948        C949   1.410       .  A
C948        H953   1.083       .  S
C949        C950   1.428       .  A
C950       C3185   1.418   1_455  A
C950        C951   1.508       .  S
C951        H955   1.111       .  S
C951        H956   1.110       .  S
C951        H957   1.110       .  S
C954        H958   1.111       .  S
C954        H960   1.111       .  S
C954       H3199   1.110   1_455  S
H959       C3194   1.110       .  S
C961        C962   1.407       .  A
C961        C966   1.397       .  A
C961        H968   1.084       .  S
C962        C963   1.424       .  A
C963        C964   1.400       .  A
C963        C970   1.509       .  S
C964        C965   1.396       .  A
C964        H969   1.085       .  S
C965        C966   1.409       .  A
C966        C967   1.507       .  S
C967        H971   1.110       .  S
C967        H972   1.111       .  S
C967        H973   1.110       .  S
C970        H974   1.110       .  S
C970        H975   1.108       .  S
C970        H976   1.111       .  S
C977        C978   1.406       .  A
C977        C982   1.400       .  A
C977        H984   1.085       .  S
C978        C979   1.408       .  A
C979        C980   1.399       .  A
C979        C986   1.507       .  S
C980        C981   1.407       .  A
C980        H985   1.085       .  S
C981        C982   1.412       .  A
C982        C983   1.508       .  S
C983        H987   1.111       .  S
C983        H988   1.110       .  S
C983        H989   1.110       .  S
C986        H990   1.110       .  S
C986        H991   1.107       .  S
C986        H992   1.111       .  S
C993        C994   1.409       .  A
C993        C998   1.409       .  A
C993       H1000   1.083       .  S
C994        C995   1.412       .  A
C995        C996   1.408       .  A
C995       C1002   1.507       .  S
C996        C997   1.410       .  A
C996       H1001   1.084       .  S
C997        C998   1.416       .  A
C998        C999   1.508       .  S
C999       H1003   1.111       .  S
C999       H1004   1.109       .  S
C999       H1005   1.111       .  S
C1002      H1006   1.109       .  S
C1002      H1007   1.111       .  S
C1002      H1008   1.111       .  S
C1009      C1010   1.405       .  A
C1009      C1014   1.410       .  A
C1009      H1016   1.084       .  S
C1010      C1011   1.428       .  A
C1011      C1012   1.410       .  A
C1011      C1018   1.508       .  S
C1012      C1013   1.400       .  A
C1012      H1017   1.084       .  S
C1013      C1014   1.422       .  A
C1014      C1015   1.508       .  S
C1015      H1019   1.111       .  S
C1015      H1020   1.108       .  S
C1015      H1021   1.110       .  S
C1018      H1024   1.111       .  S
C1018      H2142   1.106       .  S
C1018      H2143   1.110       .  S
H1022      C2138   1.105       .  S
H1023      C2138   1.109       .  S
C1025      C1030   1.420   1_545  A
C1025      C3266   1.409   1_455  A
C1025      H1032   1.083   1_445  S
C1026      C1027   1.425       .  A
C1026      C3265   1.412       .  A
C1027      C3268   1.421       .  A
C1027      C1034   1.507       .  S
C1028      C1029   1.411       .  A
C1028      C3267   1.423       .  A
C1028      H1033   1.083       .  S
C1029      C1136   1.532   1_545  S
C1029      C1030   1.429   1_545  A
C1030      C2151   1.508       .  S
C1031      C2150   1.508       .  S
C1031      H1035   1.111       .  S
C1031      H1036   1.111       .  S
C1031      H2157   1.110       .  S
C1034      H1038   1.109       .  S
C1034      H1039   1.111       .  S
C1034      H1040   1.111       .  S
H1037      C2151   1.110       .  S
C1041      C1042   1.403       .  A
C1041      C1046   1.400       .  A
C1041      H1048   1.085       .  S
C1042      C1043   1.404       .  A
C1043      C1044   1.397   1_545  A
C1043      C1050   1.508   1_545  S
C1044      C1045   1.412   1_565  A
C1044      H2169   1.085       .  S
C1045      C1140   1.472   1_545  S
C1045      C1046   1.412       .  A
C1046      C1047   1.509       .  S
C1047      H1051   1.111       .  S
C1047      H1052   1.110       .  S
C1047      H1053   1.108       .  S
H1049      C2164   1.085       .  S
C1050      H1054   1.110       .  S
C1050      H2175   1.109       .  S
C1050      H2176   1.110       .  S
H1055      C2170   1.109       .  S
H1056      C2170   1.111       .  S
C1057      C1058   1.398       .  A
C1057      C1062   1.400       .  A
C1057      H1064   1.086       .  S
C1058      C1059   1.408       .  A
C1059      C1060   1.401       .  A
C1059      C1066   1.505       .  S
C1060      C1061   1.407       .  A
C1060      H1065   1.085       .  S
C1061      C1062   1.424       .  A
C1062      C2183   1.509       .  S
C1063      C2182   1.509   1_545  S
C1063      H1067   1.111       .  S
C1063      H1068   1.110       .  S
C1063      H2189   1.105       .  S
C1066      H1070   1.109       .  S
C1066      H1071   1.110       .  S
C1066      H1072   1.110       .  S
H1069      C2183   1.103       .  S
C1073      C1074   1.396       .  A
C1073      C3318   1.392   1_455  A
C1073      H1080   1.084       .  S
C1074      C1075   1.409       .  A
C1075      C1076   1.392       .  A
C1075      C1082   1.507       .  S
C1076      C3317   1.397   1_455  A
C1076      H1081   1.085       .  S
C1077      C1078   1.409       .  A
C1077      C3316   1.398       .  A
C1078      C3313   1.392       .  A
C1078      C1079   1.506       .  S
C1079      H1083   1.111       .  S
C1079      H1084   1.108       .  S
C1079      H1085   1.108       .  S
C1082      H1086   1.110       .  S
C1082      H1087   1.109       .  S
C1082      H1088   1.111       .  S
C1089      C1094   1.408       .  A
C1089      C2210   1.400   1_545  A
C1089      H2216   1.084   1_545  S
C1090      C1091   1.428       .  A
C1090      C2209   1.401       .  A
C1091      C2212   1.409       .  A
C1091      C1098   1.510       .  S
C1092      C1093   1.400       .  A
C1092      C2211   1.410       .  A
C1092      H1097   1.084       .  S
C1093      C1094   1.424       .  A
C1094      C1095   1.509       .  S
C1095      H1099   1.111       .  S
C1095      H1100   1.110   1_545  S
C1095      H1101   1.107       .  S
H1096      C2209   1.084       .  S
C1098      H1102   1.110       .  S
C1098      H1103   1.105       .  S
C1098      H1104   1.111       .  S
C1105      C1106   1.415       .  A
C1105      C1110   1.411       .  A
C1105      H1112   1.084       .  S
C1106      C1107   1.414       .  A
C1107      C1108   1.410       .  A
C1107      C1114   1.507       .  S
C1108      C1109   1.412       .  A
C1108      H1113   1.084       .  S
C1109      C1110   1.410       .  A
C1110      C1111   1.506       .  S
C1111      H1115   1.111       .  S
C1111      H1116   1.110       .  S
C1111      H1117   1.110       .  S
C1114      H1118   1.110       .  S
C1114      H1119   1.109       .  S
C1114      H1120   1.110       .  S
O1121      C1136   1.267       .  A
O1121     Al1129   1.951       .  S
C1122      O1132   1.255       .  A
C1122      O1123   1.269       .  A
C1122      C2210   1.497       .  S
O1123     Al1125   1.939       .  S
O1124      C1126   1.270       .  A
O1124     Al1125   1.929       .  S
Al1125     O1134   1.781       .  S
C1126      O1139   1.266       .  A
C1126      C2181   1.489       .  S
O1127      C1137   1.275       .  A
O1127     Al1129   1.984       .  S
O1128      C1141   1.255       .  A
O1128     Al1138   1.893       .  S
Al1129     O1142   1.879       .  S
Al1129     O1139   1.885       .  S
Al1129     O1134   1.772       .  S
O1130      C1137   1.260       .  A
O1130     Al1138   1.885       .  S
O1131      C1140   1.252       .  A
O1131     Al1138   1.841       .  S
O1132     Al1138   1.896       .  S
O1134     Al1138   1.779       .  S
C1137      C2226   1.506       .  S
C1141      O1142   1.260       .  A
C1141      C2194   1.442       .  S
O1143      C1158   1.267       .  A
O1143     Al1151   1.950       .  S
C1144      O1154   1.259       .  A
C1144      O1145   1.267       .  A
C1144      C2114   1.494       .  S
O1145     Al1147   1.931       .  S
O1146      C1148   1.266       .  A
O1146     Al1147   1.920       .  S
Al1147     O1155   1.941       .  S
Al1147     O1157   1.951       .  S
Al1147     O1156   1.783       .  S
C1148      O1161   1.259       .  A
C1148      C2082   1.474       .  S
O1149      C1159   1.272       .  A
O1149     Al1151   1.960       .  S
O1150      C1163   1.256       .  A
O1150     Al1160   1.902       .  S
Al1151     O1164   1.868       .  S
Al1151     O1161   1.866       .  S
Al1151     O1156   1.765       .  S
O1152      C1159   1.259       .  A
O1152     Al1160   1.894       .  S
O1153      C1162   1.254       .  A
O1153     Al1160   1.854       .  S
O1154     Al1160   1.901       .  S
O1155      C1162   1.268       .  A
O1156     Al1160   1.781       .  S
O1157      C1158   1.272       .  A
C1158      C2066   1.532       .  S
C1159      C2133   1.501       .  S
C1162      C2098   1.464       .  S
C1163      O1164   1.258       .  A
C1163      C2197   1.442       .  S
O1165      C1180   1.258       .  A
O1165     Al1173   1.879       .  S
C1166      O1176   1.271       .  A
C1166      O1167   1.257       .  A
C1166      C2229   1.499       .  S
O1167     Al1169   1.905       .  S
O1168      C1170   1.264       .  A
O1168     Al1169   1.890       .  S
Al1169     O1177   1.851       .  S
Al1169     O1179   1.898       .  S
Al1169     O1178   1.781       .  S
C1170      O1183   1.273       .  A
C1170      C2117   1.488       .  S
O1171      C1181   1.258       .  A
O1171     Al1173   1.863       .  S
O1172      C1185   1.270       .  A
O1172     Al1182   1.945       .  S
Al1173     O1186   1.950       .  S
Al1173     O1183   1.957       .  S
Al1173     O1178   1.765       .  S
O1174      C1181   1.267       .  A
O1174     Al1182   1.920       .  S
O1175      C1184   1.270       .  A
O1175     Al1182   1.935       .  S
O1176     Al1182   1.952       .  S
O1177      C1184   1.255       .  A
O1178     Al1182   1.782       .  S
O1179      C1180   1.252       .  A
C1180      C2050   1.444       .  S
C1181      C2037   1.472       .  S
C1184      C2018   1.451       .  S
C1185      O1186   1.268       .  A
C1185      C2002   1.528       .  S
O1187      C1202   1.259       .  A
O1187     Al1195   1.886       .  S
C1188      C2130   1.497       .  S
O1189     Al1191   1.911       .  S
O1190      C1192   1.258       .  A
O1190     Al1191   1.877       .  S
Al1191     O1199   1.843       .  S
Al1191     O1201   1.903       .  S
Al1191     O1200   1.774       .  S
C1192      O1205   1.275       .  A
C1192      C2213   1.489       .  S
O1193      C1203   1.259       .  A
O1193     Al1195   1.877       .  S
O1194      C1207   1.272       .  A
O1194     Al1204   1.942       .  S
Al1195     O1208   1.955       .  S
Al1195     O1205   1.972       .  S
Al1195     O1200   1.769       .  S
O1196      C1203   1.267       .  A
O1196     Al1204   1.910       .  S
O1197      C1206   1.270       .  A
O1197     Al1204   1.951       .  S
O1198     Al1204   1.938       .  S
O1199      C1206   1.251       .  A
O1200     Al1204   1.779       .  S
O1201      C1202   1.255       .  A
C1202      C2053   1.450       .  S
C1203      C1986   1.465       .  S
C1206      C1973   1.457       .  S
C1207      O1208   1.269       .  A
C1207      C1954   1.529       .  S
O1209      C1224   1.260       .  A
O1209     Al1217   1.865       .  S
C1210      O1220   1.268       .  A
C1210      O1211   1.260       .  A
C1210      C1922   1.505       .  S
O1211     Al1213   1.913       .  S
O1212      C1214   1.262       .  A
O1212     Al1213   1.894       .  S
Al1213     O1221   1.840       .  S
Al1213     O1223   1.911       .  S
Al1213     O1222   1.779       .  S
C1214      O1227   1.272       .  A
C1214      C1941   1.500       .  S
O1215      C1225   1.259       .  A
O1215     Al1217   1.860       .  S
Al1217     O1230   1.964       .  S
Al1217     O1227   1.967       .  S
Al1217     O1222   1.768       .  S
O1218      C1225   1.274       .  A
O1218     Al1226   1.946       .  S
O1220     Al1226   1.921       .  S
O1221      C1228   1.252   1_565  A
O1222     Al1226   1.780       .  S
O1223      C1224   1.260       .  A
C1224      C1906   1.444       .  S
C1225      C1890   1.472       .  S
C1229      O1230   1.269       .  A
O1231      C1246   1.258       .  A
O1231     Al1239   1.877       .  S
C1232      O1242   1.271       .  A
C1232      O1233   1.259       .  A
C1232      C1842   1.505       .  S
O1233     Al1235   1.908       .  S
O1234      C1236   1.260       .  A
O1234     Al1235   1.886       .  S
Al1235     O1243   1.853       .  S
Al1235     O1245   1.892       .  S
Al1235     O1244   1.773       .  S
C1236      O1249   1.279       .  A
C1236      C1861   1.504       .  S
O1237      C1247   1.264       .  A
O1237     Al1239   1.879       .  S
O1238      C1251   1.270       .  A
O1238     Al1248   1.937       .  S
Al1239     O1252   1.974       .  S
Al1239     O1249   1.994       .  S
Al1239     O1244   1.770       .  S
O1240      C1247   1.262       .  A
O1240     Al1248   1.904       .  S
O1241      C1250   1.266       .  A
O1241     Al1248   1.931       .  S
O1242     Al1248   1.940       .  S
O1243      C1250   1.252       .  A
O1244     Al1248   1.782       .  S
O1245      C1246   1.252       .  A
C1246      C1909   1.442       .  S
C1247      C1826   1.481   1_556  S
C1250      C2034   1.453       .  S
C1251      O1252   1.274       .  A
C1251      C1810   1.526       .  S
O1253      C1268   1.266       .  A
O1253     Al1261   1.945       .  S
C1254      C1858   1.494       .  S
O1255     Al1257   1.959       .  S
O1256      C1258   1.266       .  A
O1256     Al1257   1.902       .  S
Al1257     O1265   1.920       .  S
Al1257     O1267   1.931       .  S
Al1257     O1266   1.798       .  S
C1258      O1271   1.256       .  A
C1258      C2162   1.454       .  S
O1259      C1269   1.265       .  A
O1259     Al1261   1.943       .  S
O1260      C1273   1.258       .  A
O1260     Al1270   1.893       .  S
Al1261     O1274   1.869       .  S
Al1261     O1271   1.867       .  S
Al1261     O1266   1.791       .  S
O1262      C1269   1.249       .  A
O1262     Al1270   1.873       .  S
O1263      C1272   1.252       .  A
O1263     Al1270   1.861       .  S
O1264     Al1270   1.886       .  S
O1265      C1272   1.260       .  A
O1266     Al1270   1.803       .  S
O1267      C1268   1.263       .  A
C1268      C2005   1.531       .  S
C1269      C4165   1.487   1_455  S
C1272      C1778   1.454       .  S
C1273      O1274   1.259       .  A
C1273      C1797   1.448       .  S
O1275      C1290   1.269       .  A
O1275     Al1283   1.951       .  S
C1276      O1286   1.260       .  A
C1276      O1277   1.268       .  A
C1276      C1938   1.502       .  S
O1277     Al1279   1.942       .  S
O1278      C1280   1.265       .  A
O1278     Al1279   1.903       .  S
Al1279     O1287   1.931       .  S
Al1279     O1289   1.938       .  S
Al1279     O1288   1.786       .  S
C1280      O1293   1.260       .  A
C1280      C2101   1.471       .  S
O1281      C3531   1.276       .  A
O1281     Al1283   1.968       .  S
O1282      C1295   1.254       .  A
O1282     Al1292   1.903       .  S
Al1283     O1296   1.898       .  S
Al1283     O1293   1.881       .  S
Al1283     O1288   1.773       .  S
O1284      C3531   1.263       .  A
O1284     Al1292   1.893       .  S
O1285      C1294   1.256       .  A
O1285     Al1292   1.856       .  S
O1286     Al1292   1.913       .  S
O1287      C1294   1.266       .  A
O1288     Al1292   1.778       .  S
O1289      C1290   1.270       .  A
C1290      C1957   1.528       .  S
C1291      O3521   1.277       .  A
C1291      O3524   1.263   1_455  A
C1291      C1845   1.494       .  S
C1294      C1762   1.450       .  S
C1295      O1296   1.260       .  A
C1295      C1794   1.456       .  S
O1297      C1312   1.272       .  A
O1297     Al1305   1.971       .  S
C1298      O1308   1.263       .  A
C1298      O1299   1.266       .  A
C1298      C1733   1.498       .  S
O1299     Al1301   1.927       .  S
O1300      C1302   1.266   1_554  A
O1300     Al1301   1.919       .  S
Al1301     O1309   1.944       .  S
Al1301     O1311   1.937       .  S
Al1301     O1310   1.783       .  S
C1302      O1315   1.261   1_556  A
C1302      C1765   1.477       .  S
O1303      C1313   1.275       .  A
O1303     Al1305   1.976       .  S
O1304      C1317   1.259       .  A
O1304     Al1314   1.919       .  S
Al1305     O1318   1.875       .  S
Al1305     O1315   1.867       .  S
Al1305     O1310   1.767       .  S
O1306      C1313   1.258       .  A
O1306     Al1314   1.887       .  S
O1307      C1316   1.252       .  A
O1307     Al1314   1.835       .  S
O1308     Al1314   1.918       .  S
O1309      C1316   1.268       .  A
O1310     Al1314   1.776       .  S
O1311      C1312   1.268       .  A
C1312      C1813   1.525       .  S
C1313      C1749   1.498       .  S
C1316      C1701   1.462       .  S
C1317      O1318   1.259       .  A
C1317      C1714   1.451       .  S
O1319      C1334   1.256       .  A
O1319     Al1327   1.870       .  S
C1320      O1330   1.269       .  A
C1320      O1321   1.262       .  A
C1320      C1682   1.501       .  S
O1321     Al1323   1.917       .  S
O1322      C1324   1.265       .  A
O1322     Al1323   1.900       .  S
Al1323     O1331   1.859       .  S
Al1323     O1333   1.895       .  S
Al1323     O1332   1.777       .  S
C1324      O1337   1.272       .  A
C1324      C3970   1.499   1_455  S
O1325      C1335   1.256       .  A
O1325     Al1327   1.864       .  S
O1326      C1339   1.270       .  A
O1326     Al1336   1.942       .  S
Al1327     O1340   1.951       .  S
Al1327     O1337   1.963       .  S
Al1327     O1332   1.766       .  S
O1328      C1335   1.269       .  A
O1328     Al1336   1.921       .  S
O1329      C1338   1.267       .  A
O1329     Al1336   1.936       .  S
O1330     Al1336   1.934       .  S
O1331      C1338   1.254       .  A
O1332     Al1336   1.784       .  S
O1333      C1334   1.256       .  A
C1334      C1666   1.443       .  S
C1335      C1653   1.467       .  S
C1338      C1829   1.454       .  S
C1339      O1340   1.268       .  A
C1339      C1634   1.528       .  S
O1341      C1356   1.274       .  A
O1341     Al1349   1.976       .  S
C1342      O1352   1.261       .  A
C1342      O1343   1.269       .  A
C1342      C1621   1.498       .  S
O1343     Al1345   1.937       .  S
O1344      C1346   1.272   1_554  A
O1344     Al1345   1.936       .  S
Al1345     O1353   1.953       .  S
Al1345     O1355   1.933       .  S
Al1345     O1354   1.778       .  S
C1346      O1359   1.258   1_556  A
C1346      C1781   1.475       .  S
O1347      C1357   1.277       .  A
O1347     Al1349   1.982       .  S
O1348      C1361   1.257       .  A
O1348     Al1358   1.904       .  S
Al1349     O1362   1.886       .  S
Al1349     O1359   1.872       .  S
Al1349     O1354   1.768       .  S
O1350      C1357   1.262       .  A
O1350     Al1358   1.885       .  S
O1351      C1360   1.253       .  A
O1351     Al1358   1.848       .  S
O1352     Al1358   1.920       .  S
O1353      C1360   1.271       .  A
O1354     Al1358   1.774       .  S
O1355      C1356   1.268       .  A
C1356      C1877   1.525   1_554  S
C1357      C1685   1.499       .  S
C1360      C1605   1.458       .  S
C1361      O1362   1.260       .  A
C1361      C1717   1.452       .  S
O1363      C1378   1.259       .  A
O1363     Al1371   1.880       .  S
C1364      O1374   1.270       .  A
C1364      O1365   1.254       .  A
C1364      C1746   1.504       .  S
O1366      C3608   1.262       .  A
Al1367     O1375   1.834       .  S
Al1367     O1377   1.887       .  S
Al1367     O1376   1.779       .  S
C1368      O3606   1.262   1_455  A
C1368      C1618   1.502       .  S
O1369     Al1371   1.866       .  S
O1370      C1383   1.270       .  A
O1370     Al1380   1.952       .  S
Al1371     O1384   1.945       .  S
Al1371     O3621   1.975       .  S
Al1371     O1376   1.772       .  S
O1372      C1379   1.269       .  A
O1373      C1382   1.269       .  A
O1373     Al1380   1.946       .  S
O1375      C1382   1.254       .  A
O1376     Al1380   1.785       .  S
O1377      C1378   1.255       .  A
C1378      C1669   1.437       .  S
C1379      C1589   1.460       .  S
O1381     Al3611   1.978   1_455  S
C1382      C1893   1.465       .  S
C1383      O1384   1.265       .  A
C1383      C1570   1.532       .  S
O1385      C1400   1.259       .  A
O1385     Al1393   1.875       .  S
C1386      O1396   1.268       .  A
C1386      O1387   1.257       .  A
C1386      C1557   1.489       .  S
O1387     Al1389   1.906       .  S
O1388      C1390   1.263       .  A
O1388     Al1389   1.898       .  S
Al1389     O1397   1.847       .  S
Al1389     O1399   1.889       .  S
Al1389     O1398   1.786       .  S
C1390      O1403   1.274       .  A
C1390      C1538   1.509       .  S
O1391      C1401   1.264       .  A
O1391     Al1393   1.880       .  S
O1392      C1405   1.270       .  A
O1392     Al1402   1.947       .  S
Al1393     O1406   1.960       .  S
Al1393     O1403   1.975       .  S
Al1393     O1398   1.773       .  S
O1394      C1401   1.266       .  A
O1394     Al1402   1.917       .  S
O1395      C1404   1.267       .  A
O1395     Al1402   1.932       .  S
O1396     Al1402   1.931       .  S
O1397      C1404   1.253       .  A
O1398     Al1402   1.782       .  S
O1399      C1400   1.254       .  A
C1400      C1525   1.437       .  S
C1401      C1970   1.484       .  S
C1404      C1586   1.465       .  S
C1405      O1406   1.268       .  A
C1405      C2146   1.536       .  S
O1407      C1422   1.260       .  A
O1407     Al1415   1.871       .  S
C1408      O1418   1.265       .  A
C1408      O1409   1.256       .  A
C1408      C1490   1.486       .  S
O1409     Al1411   1.886       .  S
O1410      C1412   1.262       .  A
O1410     Al1411   1.894       .  S
Al1411     O1419   1.845       .  S
Al1411     O1421   1.892       .  S
Al1411     O1420   1.784       .  S
C1412      O1425   1.269       .  A
C1412      C1509   1.497       .  S
O1413      C1423   1.264       .  A
O1413     Al1415   1.880       .  S
O1414      C1427   1.270       .  A
O1414     Al1424   1.945       .  S
Al1415     O1428   1.940       .  S
Al1415     O1425   1.950       .  S
Al1415     O1420   1.771       .  S
O1416      C1423   1.263       .  A
O1416     Al1424   1.899       .  S
O1417      C1426   1.265       .  A
O1417     Al1424   1.929       .  S
O1418     Al1424   1.928       .  S
O1419      C1426   1.254       .  A
O1420     Al1424   1.785       .  S
O1421      C1422   1.254       .  A
C1422      C1522   1.438       .  S
C1423      C2021   1.473       .  S
C1426      C1650   1.456       .  S
C1427      O1428   1.264       .  A
C1427      C2069   1.523       .  S
O1429      C1444   1.268       .  A
O1429     Al1437   1.951       .  S
C1430      O1440   1.261       .  A
C1430      O1431   1.270       .  A
C1430      C1541   1.506       .  S
O1431     Al1433   1.945       .  S
O1432      C1434   1.267       .  A
O1432     Al1433   1.914       .  S
Al1433     O1441   1.941       .  S
Al1433     O1443   1.947       .  S
Al1433     O1442   1.782       .  S
C1434      O1447   1.259       .  A
C1434      C1698   1.464       .  S
O1435      C1445   1.272       .  A
O1435     Al1437   1.953       .  S
O1436      C1449   1.256       .  A
O1436     Al1446   1.907       .  S
Al1437     O1450   1.890       .  S
Al1437     O1447   1.871       .  S
Al1437     O1442   1.767       .  S
O1438      C1445   1.262       .  A
O1438     Al1446   1.884       .  S
O1439      C1448   1.252       .  A
O1439     Al1446   1.845       .  S
O1440     Al1446   1.923       .  S
O1441      C1448   1.269       .  A
O1442     Al1446   1.778       .  S
O1443      C1444   1.272       .  A
C1444      C1573   1.531       .  S
C1445      C1493   1.487       .  S
C1448      C2085   1.453       .  S
C1449      O1450   1.261       .  A
C1449      C1474   1.454       .  S
O1451      C1466   1.269       .  A
O1451     Al1459   1.949       .  S
C1452      O1462   1.258       .  A
C1452      O1453   1.271       .  A
C1452      C1506   1.480       .  S
O1454      C1456   1.266       .  A
Al1455     O1463   1.924       .  S
Al1455     O1465   1.915       .  S
Al1455     O1464   1.798       .  S
C1456      C1602   1.466       .  S
O1457     Al1459   1.958       .  S
O1458      C1471   1.259       .  A
O1458     Al1468   1.899       .  S
Al1459     O1472   1.880       .  S
Al1459     O1469   1.874       .  S
Al1459     O1464   1.798       .  S
O1460     Al1468   1.851   1_545  S
O1461      C1470   1.246       .  A
O1461     Al1468   1.840       .  S
O1463      C1470   1.258       .  A
O1464     Al1468   1.799       .  S
O1465      C1466   1.263       .  A
C1466      C1637   1.522       .  S
C1467      C1554   1.504       .  S
C1470      C2178   1.457       .  S
C1471      O1472   1.260       .  A
C1471      C1477   1.454       .  S
C1473      C1474   1.394       .  A
C1473      C1478   1.392       .  A
C1473      H1480   1.085       .  S
C1474      C1475   1.413       .  A
C1475      C1476   1.401       .  A
C1475      C1482   1.506       .  S
C1476      C1477   1.398       .  A
C1476      H1481   1.084       .  S
C1477      C1478   1.412       .  A
C1478      C1479   1.504       .  S
C1479      H1483   1.110       .  S
C1479      H1484   1.107       .  S
C1479      H1485   1.111       .  S
C1482      H1486   1.110       .  S
C1482      H1487   1.109       .  S
C1482      H1488   1.111       .  S
C1489      C1490   1.408       .  A
C1489      C1494   1.403       .  A
C1489      H1496   1.084       .  S
C1490      C1491   1.411       .  A
C1491      C1492   1.408       .  A
C1491      C1498   1.507       .  S
C1492      C1493   1.411       .  A
C1492      H1497   1.084       .  S
C1493      C1494   1.412       .  A
C1494      C1495   1.506       .  S
C1495      H1499   1.111       .  S
C1495      H1500   1.109       .  S
C1495      H1501   1.109       .  S
C1498      H1502   1.111       .  S
C1498      H1503   1.110       .  S
C1498      H1504   1.111       .  S
C1505      C1506   1.403       .  A
C1505      C1510   1.409       .  A
C1505      H1512   1.085       .  S
C1506      C1507   1.406       .  A
C1507      C1508   1.409       .  A
C1507      C1514   1.506       .  S
C1508      C1509   1.413       .  A
C1508      H1513   1.084       .  S
C1509      C1510   1.418       .  A
C1510      C1511   1.507       .  S
C1511      H1515   1.111       .  S
C1511      H1516   1.109       .  S
C1511      H1517   1.111       .  S
C1514      H1518   1.111       .  S
C1514      H1519   1.111       .  S
C1514      H1520   1.111       .  S
C1521      C1522   1.397       .  A
C1521      C3766   1.390   1_455  A
C1521      H1528   1.085       .  S
C1522      C1523   1.407       .  A
C1523      C1524   1.390       .  A
C1523      C1530   1.507       .  S
C1524      C3765   1.396   1_455  A
C1524      H1529   1.085       .  S
C1525      C3764   1.397       .  A
C1525      C1526   1.407       .  A
C1526      C3761   1.389       .  A
C1526      C1527   1.508       .  S
C1527      H1531   1.111       .  S
C1527      H1532   1.109       .  S
C1527      H1533   1.110       .  S
C1530      H1534   1.108       .  S
C1530      H1535   1.110       .  S
C1530      H1536   1.111       .  S
C1537      C1538   1.413       .  A
C1537      C1542   1.414       .  A
C1537      H1544   1.084       .  S
C1538      C1539   1.417       .  A
C1539      C1540   1.415       .  A
C1539      C1546   1.507       .  S
C1540      C1541   1.412       .  A
C1540      H1545   1.084       .  S
C1541      C1542   1.414       .  A
C1542      C1543   1.507       .  S
C1543      H1547   1.111       .  S
C1543      H1548   1.110       .  S
C1543      H1549   1.111       .  S
C1546      H1550   1.109       .  S
C1546      H1551   1.110       .  S
C1546      H1552   1.110       .  S
C1553      C1554   1.417       .  A
C1553      C1558   1.402       .  A
C1553      H1560   1.083       .  S
C1554      C1555   1.415       .  A
C1555      C1556   1.416       .  A
C1556      C1557   1.412       .  A
C1556      H1561   1.083       .  S
C1557      C1558   1.405       .  A
C1558      C1559   1.508       .  S
C1559      H1563   1.111       .  S
C1559      H1564   1.111       .  S
C1559      H1565   1.110       .  S
C1562      H1566   1.110       .  S
C1562      H1567   1.110   1_545  S
C1562      H1568   1.111       .  S
C1569      C1570   1.410       .  A
C1569      C1574   1.423       .  A
C1569      H1576   1.083       .  S
C1570      C1571   1.430       .  A
C1571      C1572   1.421       .  A
C1571      C1578   1.508       .  S
C1572      C1573   1.409       .  A
C1572      H1577   1.083       .  S
C1573      C1574   1.430       .  A
C1574      C1575   1.508       .  S
C1575      H1579   1.111       .  S
C1575      H1580   1.110       .  S
C1575      H1581   1.110       .  S
C1578      H1582   1.110       .  S
C1578      H1583   1.110       .  S
C1578      H1584   1.111       .  S
C1585      C1586   1.408       .  A
C1585      C1590   1.398       .  A
C1585      H1592   1.085       .  S
C1586      C1587   1.410       .  A
C1588      H1593   1.084       .  S
C1589      C1590   1.407       .  A
C1590      C1591   1.507       .  S
C1591      H1595   1.111       .  S
C1591      H1596   1.110       .  S
C1591      H1597   1.109       .  S
C1594      H1598   1.105   1_565  S
C1594      H1599   1.110       .  S
C1594      H1600   1.111       .  S
C1601      C1602   1.402       .  A
C1601      C1606   1.398       .  A
C1601      H1608   1.085       .  S
C1603      C1610   1.506       .  S
C1604      C1605   1.399       .  A
C1605      C1606   1.413       .  A
C1606      C1607   1.508       .  S
C1607      H1611   1.110       .  S
C1607      H1612   1.111       .  S
C1607      H1613   1.110       .  S
C1610      H1614   1.109       .  S
C1610      H1615   1.107       .  S
C1610      H1616   1.111       .  S
C1617      C1618   1.412       .  A
C1617      C1622   1.410       .  A
C1617      H1624   1.084       .  S
C1618      C1619   1.416       .  A
C1619      C1620   1.412       .  A
C1620      C1621   1.411       .  A
C1620      H1625   1.084       .  S
C1621      C1622   1.412       .  A
C1622      C1623   1.506       .  S
C1623      H1627   1.111       .  S
C1623      H1628   1.109       .  S
C1623      H1629   1.111       .  S
C1626      H1630   1.110   1_545  S
C1626      H1632   1.110       .  S
C1633      C1634   1.414       .  A
C1633      C1638   1.423       .  A
C1633      H1640   1.083       .  S
C1634      C1635   1.427       .  A
C1635      C1636   1.416       .  A
C1635      C1642   1.509       .  S
C1636      C1637   1.409       .  A
C1636      H1641   1.084       .  S
C1637      C1638   1.422       .  A
C1638      C1639   1.506       .  S
C1639      H1643   1.111       .  S
C1639      H1644   1.110       .  S
C1639      H1645   1.111       .  S
C1642      H1646   1.110       .  S
C1642      H1647   1.110       .  S
C1642      H1648   1.111       .  S
C1649      C1650   1.403       .  A
C1649      C1654   1.397       .  A
C1649      H1656   1.085       .  S
C1650      C1651   1.407       .  A
C1651      C1652   1.397       .  A
C1651      C1658   1.507       .  S
C1652      C1653   1.406       .  A
C1652      H1657   1.085       .  S
C1653      C1654   1.412       .  A
C1654      C1655   1.506       .  S
C1655      H1659   1.111       .  S
C1655      H1660   1.110       .  S
C1655      H1661   1.109       .  S
C1658      H1662   1.106       .  S
C1658      H1663   1.110       .  S
C1658      H1664   1.111       .  S
C1665      C1666   1.402       .  A
C1665      C3910   1.393   1_455  A
C1665      H3912   1.085       .  S
C1666      C1667   1.407       .  A
C1667      C1668   1.389       .  A
C1667      C1674   1.506       .  S
C1668      C3909   1.397   1_455  A
C1668      H1673   1.086       .  S
C1669      C3908   1.397       .  A
C1669      C1670   1.403       .  A
C1670      C3905   1.393       .  A
C1670      C1671   1.507       .  S
C1671      H1675   1.111       .  S
C1671      H1676   1.110       .  S
C1671      H1677   1.110       .  S
H1672      C3905   1.085       .  S
C1674      H1678   1.104       .  S
C1674      H1679   1.109       .  S
C1674      H1680   1.111       .  S
C1681      C1682   1.414       .  A
C1681      C1686   1.413       .  A
C1681      H1688   1.083       .  S
C1682      C1683   1.413       .  A
C1683      C1684   1.409       .  A
C1683      C1690   1.507       .  S
C1684      C1685   1.411       .  A
C1684      H1689   1.084       .  S
C1685      C1686   1.413       .  A
C1686      C1687   1.506       .  S
C1687      H1691   1.110       .  S
C1687      H1692   1.110       .  S
C1687      H1693   1.109       .  S
C1690      H1694   1.111       .  S
C1690      H1695   1.110       .  S
C1690      H1696   1.111       .  S
C1697      C1698   1.405       .  A
C1697      C1702   1.399       .  A
C1697      H1704   1.085       .  S
C1698      C1699   1.408       .  A
C1699      C1700   1.396       .  A
C1699      C1706   1.507       .  S
C1700      C1701   1.406       .  A
C1700      H1705   1.085       .  S
C1701      C1702   1.409       .  A
C1702      C1703   1.507       .  S
C1703      H1707   1.111       .  S
C1703      H1708   1.110       .  S
C1703      H1709   1.109       .  S
C1706      H1710   1.108       .  S
C1706      H1711   1.111       .  S
C1706      H1712   1.111       .  S
C1713      C1714   1.397       .  A
C1713      C1718   1.395       .  A
C1713      H1720   1.085       .  S
C1714      C1715   1.411       .  A
C1715      C1716   1.394       .  A
C1715      C1722   1.504       .  S
C1716      C1717   1.396       .  A
C1716      H1721   1.085       .  S
C1717      C1718   1.411       .  A
C1718      C1719   1.506       .  S
C1719      H1723   1.111       .  S
C1719      H1724   1.110       .  S
C1719      H1725   1.108       .  S
C1722      H1726   1.109       .  S
C1722      H1727   1.106       .  S
C1722      H1728   1.111       .  S
C1729      C1730   1.409       .  A
C1729      C1734   1.412       .  A
C1729      H1736   1.084       .  S
C1730      C3564   1.497       .  S
C1730      C1731   1.414       .  A
C1731      C1732   1.408       .  A
C1731      C1738   1.503       .  S
C1732      C1733   1.408       .  A
C1732      H1737   1.084       .  S
C1733      C1734   1.416       .  A
C1734      C1735   1.507       .  S
C1735      H1739   1.111       .  S
C1735      H1740   1.110       .  S
C1735      H1741   1.111       .  S
C1738      H3982   1.109       .  S
C1738      H3983   1.107       .  S
C1738      H1744   1.111       .  S
H1742      C3978   1.109       .  S
H1743      C3978   1.109       .  S
C1745      C1746   1.402       .  A
C1745      C1750   1.410       .  A
C1745      H1752   1.084       .  S
C1746      C1747   1.430       .  A
C1747      C1748   1.411       .  A
C1747      C1754   1.510       .  S
C1748      C1749   1.399       .  A
C1748      H1753   1.084       .  S
C1749      C1750   1.425       .  A
C1750      C1751   1.508       .  S
C1751      H1755   1.111       .  S
C1751      H1756   1.107       .  S
C1751      H1757   1.110       .  S
C1754      H1758   1.107       .  S
C1754      H1759   1.110       .  S
C1754      H1760   1.111       .  S
C1761      C1762   1.396       .  A
C1761      C1766   1.398       .  A
C1761      H1768   1.085       .  S
C1762      C1763   1.404       .  A
C1763      C1764   1.395       .  A
C1763      C1770   1.507       .  S
C1764      C1765   1.408       .  A
C1764      H1769   1.084       .  S
C1765      C1766   1.423       .  A
C1766      C1767   1.509       .  S
C1767      H1771   1.111       .  S
C1767      H1772   1.110       .  S
C1767      H1773   1.108       .  S
C1770      H1774   1.107       .  S
C1770      H1775   1.110       .  S
C1770      H1776   1.111       .  S
C1777      C1778   1.403       .  A
C1777      C1782   1.403       .  A
C1777      H1784   1.084       .  S
C1778      C1779   1.406       .  A
C1779      C1780   1.399       .  A
C1779      C1786   1.507       .  S
C1780      C1781   1.406       .  A
C1780      H1785   1.084       .  S
C1781      C1782   1.415       .  A
C1782      C1783   1.507       .  S
C1783      H1787   1.111       .  S
C1783      H1788   1.109       .  S
C1783      H1789   1.110       .  S
C1786      H1790   1.110       .  S
C1786      H1791   1.110       .  S
C1786      H1792   1.111       .  S
C1793      C4034   1.400       .  A
C1793      C1798   1.395       .  A
C1793      H1800   1.085       .  S
C1794      C4033   1.400       .  A
C1794      C1795   1.405       .  A
C1795      C4036   1.401       .  A
C1795      C1802   1.503       .  S
C1796      C4035   1.399   1_455  A
C1796      C1797   1.402       .  A
C1796      H4041   1.085       .  S
C1797      C1798   1.407       .  A
C1798      C1799   1.508       .  S
C1799      H1803   1.111       .  S
C1799      H1804   1.110       .  S
C1799      H1805   1.110       .  S
H1801      C4036   1.084       .  S
C1802      H1806   1.110       .  S
C1802      H1807   1.110       .  S
C1802      H1808   1.111       .  S
C1809      C1810   1.413       .  A
C1809      C1814   1.422   1_556  A
C1809      H1816   1.084       .  S
C1810      C1811   1.422       .  A
C1811      C1812   1.421       .  A
C1811      C1818   1.507       .  S
C1812      C1813   1.412   1_556  A
C1812      H1817   1.084       .  S
C1813      C1814   1.422       .  A
C1814      C1815   1.506       .  S
C1815      H1819   1.111       .  S
C1815      H1820   1.109       .  S
C1815      H1821   1.111       .  S
C1818      H1822   1.111       .  S
C1818      H1823   1.109       .  S
C1818      H1824   1.111       .  S
C1825      C1826   1.405       .  A
C1825      C1830   1.395       .  A
C1825      H1832   1.084       .  S
C1826      C1827   1.426       .  A
C1827      C1828   1.399       .  A
C1827      C1834   1.510       .  S
C1828      C1829   1.395       .  A
C1828      H1833   1.085       .  S
C1829      C1830   1.407       .  A
C1830      C1831   1.502       .  S
C1831      H1835   1.110       .  S
C1831      H1836   1.110       .  S
C1831      H1837   1.108       .  S
C1834      H1838   1.108   1_554  S
C1834      H1839   1.110   1_554  S
C1834      H1840   1.111       .  S
C1841      C1842   1.403       .  A
C1841      C1846   1.409       .  A
C1841      H1848   1.084       .  S
C1842      C1843   1.430       .  A
C1843      C1844   1.411       .  A
C1843      C1850   1.508       .  S
C1844      C1845   1.398       .  A
C1844      H1849   1.084       .  S
C1845      C1846   1.422       .  A
C1846      C1847   1.507       .  S
C1847      H1851   1.111       .  S
C1847      H1852   1.108       .  S
C1847      H4093   1.109       .  S
C1850      H1854   1.104       .  S
C1850      H1855   1.110       .  S
C1850      H1856   1.111       .  S
H1853      C4087   1.110       .  S
C1857      C1858   1.396       .  A
C1857      C1862   1.409       .  A
C1857      H1864   1.085       .  S
C1858      C1859   1.421       .  A
C1859      C1860   1.415       .  A
C1859      C1866   1.507       .  S
C1860      C1861   1.404       .  A
C1860      H1865   1.085       .  S
C1861      C1862   1.429       .  A
C1862      C1863   1.508       .  S
C1863      H1867   1.106       .  S
C1863      H1868   1.111       .  S
C1863      H1869   1.109       .  S
C1866      H1870   1.110       .  S
C1866      H1871   1.109       .  S
C1866      H1872   1.111       .  S
C1873      H1880   1.084       .  S
C1874      C1875   1.424       .  A
C1875      C1876   1.421       .  A
C1875      C1882   1.507       .  S
C1876      C1877   1.411       .  A
C1876      H1881   1.084       .  S
C1877      C1878   1.423   1_556  A
C1879      H1883   1.111       .  S
C1879      H1885   1.111   1_565  S
C1882      H1886   1.111       .  S
C1882      H1887   1.109       .  S
C1882      H1888   1.111       .  S
C1889      C1890   1.408   1_554  A
C1889      C1894   1.403       .  A
C1889      H1896   1.084       .  S
C1890      C1891   1.413   1_556  A
C1891      C1892   1.397       .  A
C1891      C1898   1.508   1_554  S
C1892      C1893   1.404       .  A
C1892      H1897   1.085       .  S
C1893      C1894   1.407       .  A
C1894      C1895   1.507   1_565  S
C1895      H1899   1.111       .  S
C1895      H1900   1.108       .  S
C1895      H1901   1.110   1_545  S
C1898      H1902   1.110       .  S
C1898      H1903   1.108       .  S
C1898      H1904   1.111   1_556  S
C1905      C1906   1.398       .  A
C1905      C1910   1.391       .  A
C1905      H1912   1.085       .  S
C1906      C1907   1.409       .  A
C1907      C1908   1.393       .  A
C1907      C1914   1.507       .  S
C1908      C1909   1.396       .  A
C1908      H1913   1.084       .  S
C1909      C1910   1.407       .  A
C1910      C1911   1.507       .  S
C1911      H1915   1.111       .  S
C1911      H1916   1.109       .  S
C1911      H1917   1.108       .  S
C1914      H1918   1.108       .  S
C1914      H1919   1.110       .  S
C1914      H1920   1.111       .  S
C1921      C1926   1.412       .  A
C1921      H1928   1.084       .  S
C1922      C1923   1.429       .  A
C1923      C1924   1.414   1_565  A
C1923      C1930   1.508       .  S
C1924      H4169   1.084   1_545  S
C1925      C3509   1.488       .  S
C1925      C1926   1.413       .  A
C1926      C1927   1.504       .  S
C1927      H1931   1.111       .  S
C1927      H1932   1.110       .  S
C1927      H1933   1.106       .  S
H1929      C4164   1.084   1_455  S
C1930      H1934   1.110       .  S
C1930      H1935   1.110       .  S
C1930      H1936   1.111       .  S
C1937      C1938   1.412       .  A
C1937      C1942   1.411       .  A
C1937      H1944   1.083       .  S
C1938      C1939   1.414       .  A
C1939      C1940   1.413       .  A
C1939      C1946   1.506       .  S
C1940      C1941   1.411       .  A
C1940      H1945   1.083       .  S
C1941      C1942   1.414       .  A
C1942      C1943   1.506       .  S
C1943      H1947   1.110       .  S
C1943      H1948   1.110       .  S
C1943      H1949   1.109       .  S
C1946      H1950   1.110       .  S
C1946      H1951   1.110       .  S
C1946      H1952   1.111       .  S
C1953      C1954   1.410       .  A
C1953      C1958   1.420       .  A
C1953      H1960   1.083       .  S
C1954      C1955   1.429       .  A
C1955      C1956   1.421       .  A
C1955      C1962   1.508       .  S
C1956      C1957   1.410       .  A
C1956      H1961   1.084       .  S
C1957      C1958   1.428       .  A
C1958      C1959   1.508       .  S
C1959      H1963   1.111       .  S
C1959      H1964   1.110       .  S
C1959      H1965   1.111       .  S
C1962      H1966   1.110       .  S
C1962      H1967   1.110       .  S
C1962      H1968   1.111       .  S
C1969      C1970   1.406       .  A
C1969      C1974   1.399       .  A
C1969      H1976   1.084       .  S
C1970      C1971   1.426       .  A
C1971      C1972   1.401       .  A
C1971      C1978   1.510       .  S
C1972      C1973   1.395       .  A
C1972      H1977   1.084       .  S
C1973      C1974   1.409       .  A
C1974      C1975   1.508       .  S
C1975      H1979   1.111       .  S
C1975      H1980   1.110       .  S
C1975      H1981   1.109       .  S
C1978      H1982   1.106       .  S
C1978      H1983   1.110       .  S
C1978      H1984   1.111       .  S
C1985      C1986   1.404       .  A
C1985      H1992   1.085       .  S
C1986      C1987   1.410       .  A
C1987      C1988   1.401       .  A
C1987      C1994   1.507       .  S
C1988      C1989   1.407       .  A
C1988      H1993   1.085       .  S
C1990      C1991   1.507       .  S
C1991      H1995   1.111       .  S
C1991      H1996   1.110       .  S
C1991      H1997   1.110       .  S
C1994      H1998   1.110       .  S
C1994      H1999   1.110       .  S
C1994      H2000   1.111       .  S
C2001      C2002   1.413       .  A
C2001      C2006   1.424       .  A
C2001      H2008   1.084       .  S
C2002      C2003   1.423       .  A
C2003      C2004   1.420       .  A
C2003      C2010   1.508       .  S
C2004      C2005   1.414       .  A
C2004      H2009   1.083       .  S
C2005      C2006   1.425       .  A
C2006      C2007   1.506       .  S
C2007      H2011   1.111       .  S
C2007      H2012   1.110       .  S
C2007      H2013   1.110       .  S
C2010      H2014   1.109       .  S
C2010      H2015   1.111       .  S
C2010      H2016   1.111       .  S
C2017      C2018   1.394       .  A
C2017      C2022   1.395       .  A
C2017      H2024   1.085       .  S
C2018      C2019   1.409       .  A
C2019      C2020   1.396       .  A
C2019      C2026   1.507       .  S
C2020      C2021   1.404       .  A
C2020      H2025   1.084       .  S
C2021      C2022   1.424       .  A
C2022      C2023   1.510       .  S
C2023      H2027   1.111       .  S
C2023      H2028   1.105       .  S
C2023      H2029   1.110       .  S
C2026      H2030   1.110       .  S
C2026      H2031   1.111       .  S
C2026      H2032   1.110       .  S
C2033      C2034   1.395       .  A
C2033      C2038   1.397       .  A
C2033      H2040   1.085       .  S
C2034      C2035   1.409       .  A
C2035      C2036   1.395       .  A
C2035      C2042   1.507       .  S
C2036      C2037   1.405       .  A
C2036      H2041   1.085       .  S
C2037      C2038   1.420       .  A
C2038      C2039   1.507       .  S
C2039      H2043   1.111       .  S
C2039      H2044   1.102       .  S
C2039      H2045   1.110       .  S
C2042      H2046   1.110       .  S
C2042      H2047   1.110       .  S
C2042      H2048   1.110       .  S
C2049      C2050   1.393       .  A
C2049      C2054   1.390       .  A
C2049      H2056   1.084       .  S
C2050      C2051   1.409       .  A
C2051      C2052   1.395       .  A
C2051      C2058   1.506       .  S
C2052      C2053   1.399       .  A
C2052      H2057   1.084       .  S
C2053      C2054   1.411       .  A
C2054      C2055   1.504       .  S
C2055      H2059   1.111       .  S
C2055      H2060   1.107       .  S
C2055      H2061   1.107       .  S
C2058      H2062   1.108       .  S
C2058      H2063   1.111       .  S
C2058      H2064   1.111       .  S
C2065      C2066   1.411       .  A
C2065      C4310   1.423       .  A
C2065      H2072   1.084       .  S
C2066      C4307   1.428       .  A
C2067      C4306   1.428       .  A
C2067      C2068   1.419   1_655  A
C2067      C2074   1.508       .  S
C2068      C2069   1.407       .  A
C2068      H2073   1.083       .  S
C2069      C2070   1.429       .  A
C2070      C4305   1.419       .  A
C2070      C2071   1.509       .  S
C2071      H2075   1.111       .  S
C2071      H2076   1.108       .  S
C2071      H2077   1.110       .  S
C2074      H2078   1.110       .  S
C2074      H4319   1.108       .  S
C2074      H2080   1.111       .  S
H2079      C4314   1.110       .  S
C2081      C2082   1.405       .  A
C2081      C2086   1.393       .  A
C2081      H2088   1.085       .  S
C2082      C2083   1.422       .  A
C2083      C2084   1.398       .  A
C2083      C2090   1.508       .  S
C2084      C2085   1.397       .  A
C2084      H2089   1.086       .  S
C2085      C2086   1.410       .  A
C2086      C2087   1.508       .  S
C2087      H2091   1.110       .  S
C2087      H2092   1.111       .  S
C2087      H2093   1.110       .  S
C2090      H2094   1.110       .  S
C2090      H2095   1.105       .  S
C2090      H2096   1.111       .  S
C2097      C2098   1.405       .  A
C2097      C2102   1.401       .  A
C2097      H2104   1.085       .  S
C2098      C2099   1.409       .  A
C2099      C2100   1.397       .  A
C2099      C2106   1.507       .  S
C2100      C2101   1.406       .  A
C2100      H2105   1.085       .  S
C2101      C2102   1.411       .  A
C2102      C2103   1.507       .  S
C2103      H2107   1.111       .  S
C2103      H2108   1.110       .  S
C2103      H2109   1.110       .  S
C2106      H2110   1.110       .  S
C2106      H2111   1.107       .  S
C2106      H2112   1.111       .  S
C2113      C2114   1.412       .  A
C2113      C2118   1.408       .  A
C2113      H2120   1.083       .  S
C2114      C2115   1.413       .  A
C2115      C2116   1.407       .  A
C2115      C2122   1.507       .  S
C2116      C2117   1.409       .  A
C2116      H2121   1.083       .  S
C2117      C2118   1.412       .  A
C2118      C2119   1.508       .  S
C2119      H2123   1.111       .  S
C2119      H2124   1.109       .  S
C2119      H2125   1.111       .  S
C2122      H2126   1.110       .  S
C2122      H2127   1.111       .  S
C2122      H2128   1.111       .  S
C2129      C2130   1.401       .  A
C2129      C2134   1.410       .  A
C2129      H2136   1.084       .  S
C2130      C2131   1.422       .  A
C2131      C2132   1.409       .  A
C2131      C2138   1.506       .  S
C2132      C2133   1.404       .  A
C2132      H2137   1.084       .  S
C2133      C2134   1.425       .  A
C2134      C2135   1.508       .  S
C2135      H2139   1.111       .  S
C2135      H2140   1.110       .  S
C2135      H2141   1.110       .  S
C2138      H2144   1.111       .  S
C2145      C4386   1.410   1_455  A
C2145      C2150   1.420       .  A
C2145      H2152   1.083   1_455  S
C2146      C4385   1.410       .  A
C2146      C2147   1.429       .  A
C2147      C4388   1.425       .  A
C2147      C2154   1.507       .  S
C2148      C4387   1.423       .  A
C2148      C2149   1.412       .  A
C2148      H2153   1.083       .  S
C2149      C2150   1.428       .  A
C2151      H2155   1.111       .  S
C2151      H2156   1.110       .  S
C2154      H2158   1.111       .  S
C2154      H2159   1.110       .  S
C2154      H2160   1.111       .  S
C2161      C2162   1.404       .  A
C2161      C2166   1.401       .  A
C2161      H2168   1.085       .  S
C2162      C2163   1.405       .  A
C2163      C2164   1.396       .  A
C2163      C2170   1.508       .  S
C2164      C2165   1.410       .  A
C2165      C2166   1.411       .  A
C2166      C2167   1.509       .  S
C2167      H2171   1.111       .  S
C2167      H2172   1.110       .  S
C2167      H2173   1.108       .  S
C2170      H2174   1.110       .  S
C2177      C2178   1.399       .  A
C2177      C2182   1.402       .  A
C2177      H2184   1.086   1_565  S
C2178      C2179   1.408       .  A
C2179      C2180   1.401       .  A
C2179      C2186   1.505       .  S
C2180      C2181   1.408       .  A
C2180      H2185   1.084       .  S
C2181      C2182   1.425       .  A
C2183      H2187   1.111       .  S
C2183      H2188   1.110       .  S
C2186      H2190   1.110       .  S
C2186      H2191   1.110       .  S
C2186      H2192   1.110       .  S
C2193      C2194   1.395       .  A
C2193      C4438   1.391   1_455  A
C2193      H2200   1.085       .  S
C2194      C2195   1.409       .  A
C2195      C2196   1.391       .  A
C2195      C2202   1.506       .  S
C2196      C4437   1.396   1_455  A
C2196      H2201   1.085       .  S
C2197      C4436   1.397       .  A
C2197      C2198   1.409       .  A
C2198      C4433   1.391       .  A
C2198      C2199   1.507       .  S
C2199      H2203   1.111       .  S
C2199      H2204   1.110       .  S
C2199      H2205   1.107       .  S
C2202      H2206   1.110       .  S
C2202      H2207   1.108       .  S
C2202      H2208   1.111       .  S
C2209      C2214   1.406       .  A
C2210      C2211   1.427   1_565  A
C2211      C2218   1.509   1_545  S
C2212      C2213   1.399       .  A
C2212      H2217   1.084       .  S
C2213      C2214   1.423       .  A
C2214      C2215   1.510       .  S
C2215      H2219   1.111       .  S
C2215      H2220   1.110       .  S
C2215      H2221   1.106       .  S
C2218      H2222   1.110       .  S
C2218      H2223   1.106   1_565  S
C2218      H2224   1.111       .  S
C2225      C2226   1.415       .  A
C2225      C2230   1.411       .  A
C2225      H2232   1.084       .  S
C2226      C2227   1.416       .  A
C2227      C2228   1.413       .  A
C2227      C2234   1.506       .  S
C2228      C2229   1.412       .  A
C2228      H2233   1.084       .  S
C2229      C2230   1.410       .  A
C2230      C2231   1.506       .  S
C2231      H2235   1.111       .  S
C2231      H2236   1.111       .  S
C2231      H2237   1.110       .  S
C2234      H2238   1.110       .  S
C2234      H2239   1.109       .  S
C2234      H2240   1.110       .  S
O2241      C2256   1.268       .  A
O2241     Al2249   1.959       .  S
C2242      O2252   1.257       .  A
C2242      O2243   1.269       .  A
C2242      C3330   1.500       .  S
O2243     Al2245   1.940       .  S
O2244      C2246   1.269       .  A
O2244     Al2245   1.925       .  S
Al2245     O3373   1.950       .  S
Al2245     O3375   1.951       .  S
Al2245     O2254   1.783       .  S
C2246      O2259   1.265       .  A
C2246      C3301   1.483       .  S
O2247      C2257   1.275       .  A
O2247     Al2249   1.983       .  S
O2248      C2261   1.257       .  A
O2248     Al2258   1.904       .  S
Al2249     O2262   1.877       .  S
Al2249     O2259   1.881       .  S
Al2249     O2254   1.772       .  S
O2250      C2257   1.260       .  A
O2250     Al2258   1.886       .  S
O2251      C2260   1.252       .  A
O2251     Al2258   1.837       .  S
O2252     Al2258   1.903       .  S
O2253      C3380   1.273   1_545  A
O2253     Al3365   1.963   1_545  S
O2254     Al2258   1.780       .  S
O2255      C3376   1.270   1_545  A
O2255     Al3365   1.940   1_545  S
C2256      O3375   1.271       .  A
C2256      C4389   1.537       .  S
C2257      C3346   1.505       .  S
C2260      O3373   1.270       .  A
C2260      C4405   1.473       .  S
C2261      O2262   1.260       .  A
C2261      C3314   1.445       .  S
O2263      C2278   1.268       .  A
O2263     Al2271   1.949       .  S
C2264      O2274   1.262       .  A
C2264      O2265   1.267       .  A
C2264      C3234   1.494       .  S
O2265     Al2267   1.923       .  S
O2266      C2268   1.264       .  A
O2266     Al2267   1.915       .  S
Al2267     O2275   1.941       .  S
Al2267     O2277   1.941       .  S
Al2267     O2276   1.782       .  S
C2268      O2281   1.261       .  A
C2268      C3202   1.480       .  S
O2269      C2279   1.272       .  A
O2269     Al2271   1.959       .  S
O2270      C2283   1.256       .  A
O2270     Al2280   1.904       .  S
Al2271     O2284   1.862       .  S
Al2271     O2281   1.873       .  S
Al2271     O2276   1.765       .  S
O2272      C2279   1.259       .  A
O2272     Al2280   1.889       .  S
O2273      C2282   1.253       .  A
O2273     Al2280   1.852       .  S
O2274     Al2280   1.910       .  S
O2275      C2282   1.267       .  A
O2276     Al2280   1.778       .  S
O2277      C2278   1.272       .  A
C2278      C3186   1.523       .  S
C2279      C3253   1.497       .  S
C2282      C3218   1.465       .  S
C2283      O2284   1.256       .  A
C2283      C3317   1.441       .  S
O2285      C2300   1.258       .  A
O2285     Al2293   1.882       .  S
C2286      O2296   1.270       .  A
C2286      O2287   1.258       .  A
C2286      C3349   1.502       .  S
O2287     Al2289   1.910       .  S
O2288      C2290   1.264       .  A
O2288     Al2289   1.891       .  S
Al2289     O2297   1.850       .  S
Al2289     O2299   1.895       .  S
Al2289     O2298   1.781       .  S
C2290      O2303   1.273       .  A
C2290      C3237   1.490       .  S
O2291      C2301   1.258       .  A
O2291     Al2293   1.867       .  S
O2292      C2305   1.271       .  A
O2292     Al2302   1.946       .  S
Al2293     O2306   1.951       .  S
Al2293     O2303   1.955       .  S
Al2293     O2298   1.767       .  S
O2294      C2301   1.265       .  A
O2294     Al2302   1.914       .  S
O2295      C2304   1.268       .  A
O2295     Al2302   1.933       .  S
O2296     Al2302   1.949       .  S
O2297      C2304   1.255       .  A
O2298     Al2302   1.783       .  S
O2299      C2300   1.253       .  A
C2300      C3170   1.443       .  S
C2301      C3157   1.471       .  S
C2304      C3138   1.452       .  S
C2305      O2306   1.268       .  A
C2305      C3122   1.532       .  S
O2307      C2322   1.259       .  A
O2307     Al2315   1.875       .  S
C2308      O3438   1.268       .  A
C2308      O3429   1.257       .  A
C2308      C3250   1.501       .  S
O2309      C3428   1.258   1_545  A
O2309     Al2311   1.910       .  S
O2310      C2312   1.259       .  A
O2310     Al2311   1.885       .  S
Al2311     O2319   1.844       .  S
Al2311     O2321   1.905       .  S
Al2311     O2320   1.779       .  S
C2312      O2325   1.275       .  A
C2312      C3333   1.495       .  S
O2313      C2323   1.259       .  A
O2313     Al2315   1.874       .  S
O2314      C2327   1.270       .  A
O2314     Al2324   1.945       .  S
Al2315     O2328   1.962       .  S
Al2315     O2325   1.970       .  S
Al2315     O2320   1.769       .  S
O2316      C2323   1.268       .  A
O2316     Al2324   1.915       .  S
O2317      C2326   1.269       .  A
O2317     Al2324   1.944       .  S
O2318      C3428   1.269       .  A
O2318     Al2324   1.940   1_565  S
O2319      C2326   1.252       .  A
O2320     Al2324   1.781       .  S
O2321      C2322   1.256       .  A
C2322      C3173   1.448       .  S
C2323      C3106   1.466       .  S
C2326      C3093   1.456       .  S
C2327      O2328   1.270       .  A
C2327      C3074   1.536       .  S
O2329      C2344   1.261       .  A
O2329     Al2337   1.865       .  S
C2330      O2340   1.265       .  A
C2330      O2331   1.261       .  A
C2330      C3042   1.489       .  S
O2331     Al2333   1.910       .  S
O2332      C2334   1.259       .  A
O2332     Al2333   1.895       .  S
Al2333     O2341   1.843       .  S
Al2333     O2343   1.913       .  S
Al2333     O2342   1.784       .  S
C2334      O2347   1.271       .  A
C2334      C3061   1.505       .  S
O2335      C2345   1.262       .  A
O2335     Al2337   1.863       .  S
O2336      C3469   1.264       .  A
O2336     Al3466   1.931       .  S
Al2337     O2350   1.970       .  S
Al2337     O2347   1.974       .  S
Al2337     O2342   1.775       .  S
O2338      C2345   1.275       .  A
O2338     Al2346   1.943       .  S
O2339      C3468   1.267   1_545  A
O2339     Al3466   1.938   1_545  S
O2340     Al2346   1.925       .  S
O2341      C2348   1.250       .  A
O2342     Al2346   1.786       .  S
O2343      C2344   1.262       .  A
C2344      C3026   1.444       .  S
C2345      C3010   1.470       .  S
Al2346     O3456   1.932       .  S
Al2346     O3459   1.940       .  S
C2348      O3459   1.268       .  A
C2348      C4229   1.465       .  S
C2349      O3456   1.264       .  A
C2349      O2350   1.268       .  A
C2349      C4114   1.524       .  S
O2351      C2366   1.257       .  A
O2351     Al2359   1.877       .  S
C2352      O2362   1.271       .  A
C2352      O2353   1.258       .  A
C2352      C2962   1.505       .  S
O2353     Al2355   1.907       .  S
O2354      C2356   1.259       .  A
O2354     Al2355   1.881       .  S
Al2355     O2363   1.853       .  S
Al2355     O2365   1.893       .  S
Al2355     O2364   1.773       .  S
C2356      O2369   1.280       .  A
C2356      C2981   1.502       .  S
O2357      C2367   1.264       .  A
O2357     Al2359   1.881       .  S
O2358      C2371   1.268       .  A
O2358     Al2368   1.928       .  S
Al2359     O2372   1.971       .  S
Al2359     O2369   1.995       .  S
Al2359     O2364   1.768       .  S
O2360      C2367   1.263       .  A
O2360     Al2368   1.906       .  S
O2361      C2370   1.267       .  A
O2361     Al2368   1.930       .  S
O2362     Al2368   1.942       .  S
O2363      C2370   1.253       .  A
O2364     Al2368   1.779       .  S
O2365      C2366   1.252       .  A
C2366      C3029   1.443       .  S
C2367      C2946   1.484       .  S
C2370      C3154   1.452       .  S
C2371      O2372   1.274       .  A
C2371      C2930   1.527       .  S
O2373      C2388   1.267       .  A
O2373     Al2381   1.938       .  S
C2374      O3504   1.260       .  A
C2374      O3495   1.271       .  A
C2374      C2978   1.492       .  S
O2375      C3494   1.274   1_545  A
O2375     Al2377   1.964       .  S
O2376      C2378   1.266       .  A
O2376     Al2377   1.910       .  S
Al2377     O2385   1.926       .  S
Al2377     O2387   1.945       .  S
Al2377     O2386   1.791       .  S
C2378      O2391   1.253       .  A
C2378      C3282   1.456       .  S
O2379      C2389   1.265       .  A
O2379     Al2381   1.943       .  S
O2380      C2393   1.258       .  A
O2380     Al2390   1.900       .  S
Al2381     O2394   1.877       .  S
Al2381     O2391   1.862       .  S
Al2381     O2386   1.789       .  S
O2382      C2389   1.253       .  A
O2382     Al2390   1.886       .  S
O2383      C2392   1.250       .  A
O2383     Al2390   1.855       .  S
O2384      C3494   1.264   1_545  A
O2384     Al2390   1.900       .  S
O2385      C2392   1.261       .  A
O2386     Al2390   1.801       .  S
O2387      C2388   1.267       .  A
C2388      C3125   1.528       .  S
C2392      C2898   1.455       .  S
C2393      O2394   1.261       .  A
C2393      C2917   1.453       .  S
O2395      C2410   1.272       .  A
O2395     Al2403   1.967       .  S
C2396      O2406   1.260       .  A
C2396      O2397   1.270       .  A
C2396      C3058   1.509       .  S
O2397     Al2399   1.951       .  S
O2398      C2400   1.266       .  A
O2398     Al2399   1.912       .  S
Al2399     O2407   1.942       .  S
Al2399     O2409   1.942       .  S
Al2399     O2408   1.785       .  S
C2400      O2413   1.257       .  A
C2400      C3221   1.469       .  S
O2401     Al2403   1.973   1_455  S
O2402      C2415   1.253       .  A
O2402     Al2412   1.897       .  S
Al2403     O2416   1.898       .  S
Al2403     O2413   1.871       .  S
Al2403     O2408   1.773       .  S
O2404     Al2412   1.890       .  S
O2405      C2414   1.255       .  A
O2405     Al2412   1.854       .  S
O2406     Al2412   1.917       .  S
O2407      C2414   1.269       .  A
O2408     Al2412   1.777       .  S
O2409      C2410   1.271       .  A
C2410      C3077   1.537       .  S
C2411      C2965   1.496       .  S
C2414      C2882   1.454       .  S
C2415      O2416   1.261       .  A
C2415      C2914   1.454   1_655  S
O2417      C2432   1.273       .  A
O2417     Al2425   1.969       .  S
C2418      O2428   1.261       .  A
C2418      O2419   1.264       .  A
C2418      C2853   1.491       .  S
O2419     Al2421   1.920       .  S
O2420      C2422   1.267   1_554  A
O2420     Al2421   1.922       .  S
Al2421     O2429   1.948       .  S
Al2421     O2431   1.927       .  S
Al2421     O2430   1.779       .  S
C2422      O2435   1.261   1_556  A
C2422      C2885   1.479       .  S
O2423      C2433   1.276       .  A
O2423     Al2425   1.977       .  S
O2424      C2437   1.258       .  A
O2424     Al2434   1.914       .  S
Al2425     O2438   1.876       .  S
Al2425     O2435   1.867       .  S
Al2425     O2430   1.765       .  S
O2426      C2433   1.258       .  A
O2426     Al2434   1.883       .  S
O2427      C2436   1.252       .  A
O2427     Al2434   1.835       .  S
O2428     Al2434   1.916       .  S
O2429      C2436   1.270       .  A
O2430     Al2434   1.774       .  S
O2431      C2432   1.267       .  A
C2432      C2933   1.527       .  S
C2433      C2869   1.497       .  S
C2436      C2821   1.465       .  S
C2437      O2438   1.259       .  A
C2437      C2834   1.449       .  S
O2439      C2454   1.256       .  A
O2439     Al2447   1.877       .  S
C2440      O2450   1.271       .  A
C2440      O2441   1.263       .  A
C2440      C2802   1.506       .  S
O2441     Al2443   1.925       .  S
O2442      C2444   1.266       .  A
O2442     Al2443   1.904       .  S
Al2443     O2451   1.862       .  S
Al2443     O2453   1.895       .  S
Al2443     O2452   1.781       .  S
C2444      O2457   1.275       .  A
O2445      C2455   1.257       .  A
O2445     Al2447   1.870       .  S
O2446      C2459   1.271       .  A
O2446     Al2456   1.947       .  S
Al2447     O2460   1.954       .  S
Al2447     O2457   1.971       .  S
Al2447     O2452   1.767       .  S
O2448      C2455   1.268       .  A
O2448     Al2456   1.924       .  S
O2449      C2458   1.267       .  A
O2449     Al2456   1.940       .  S
O2450     Al2456   1.940       .  S
O2451      C2458   1.254       .  A
O2452     Al2456   1.787       .  S
O2453      C2454   1.255       .  A
C2454      C2786   1.445       .  S
C2455      C2773   1.472       .  S
C2458      C2949   1.457       .  S
C2459      O2460   1.269       .  A
C2459      C2754   1.530       .  S
O2461      C2476   1.271       .  A
O2461     Al2469   1.967       .  S
C2462      O2472   1.263       .  A
C2462      O2463   1.269       .  A
C2462      C2741   1.498       .  S
O2463     Al2465   1.934       .  S
O2464      C2466   1.273   1_554  A
O2464     Al2465   1.942       .  S
Al2465     O2473   1.951       .  S
Al2465     O2475   1.937       .  S
Al2465     O2474   1.781       .  S
C2466      O2479   1.260   1_556  A
C2466      C2901   1.484       .  S
O2467      C2477   1.275       .  A
O2467     Al2469   1.978       .  S
O2468      C2481   1.258       .  A
O2468     Al2478   1.908       .  S
Al2469     O2482   1.881       .  S
Al2469     O2479   1.873       .  S
Al2469     O2474   1.768       .  S
O2470      C2477   1.264       .  A
O2470     Al2478   1.896       .  S
O2471      C2480   1.252       .  A
O2471     Al2478   1.849       .  S
O2472     Al2478   1.925       .  S
O2473      C2480   1.270       .  A
O2474     Al2478   1.778       .  S
O2475      C2476   1.268       .  A
C2476      C2997   1.520   1_554  S
C2477      C2805   1.507       .  S
C2480      C2725   1.460       .  S
C2481      O2482   1.260       .  A
C2481      C2837   1.450       .  S
O2483      C2498   1.258       .  A
O2483     Al2491   1.874       .  S
C2484      O2494   1.269       .  A
C2484      O2485   1.253       .  A
C2484      C2866   1.499       .  S
O2485     Al3607   1.891   1_545  S
O2486     Al3607   1.892   1_545  S
Al2487     O3605   1.889       .  S
Al2487     O3606   1.892       .  S
Al2487     O2495   1.834       .  S
Al2487     O2497   1.885       .  S
Al2487     O2496   1.775       .  S
C2488      O3621   1.273   1_545  A
C2488      C2738   1.505       .  S
O2489      C3619   1.258       .  A
O2489     Al2491   1.861       .  S
O2490      C2503   1.271       .  A
O2490     Al2500   1.949       .  S
Al2491     O2504   1.956       .  S
Al2491     O2496   1.768       .  S
O2492      C2499   1.270       .  A
O2492     Al3620   1.922   1_545  S
O2493      C2502   1.270       .  A
O2493     Al2500   1.952       .  S
O2494     Al3620   1.942   1_545  S
O2495      C2502   1.253       .  A
O2496     Al2500   1.781       .  S
O2497      C2498   1.255       .  A
C2498      C2789   1.431       .  S
C2499      O3609   1.259   1_545  A
C2499      C2709   1.462       .  S
Al2500     O3612   1.926       .  S
Al2500     O3614   1.936       .  S
O2501      C3608   1.275       .  A
C2502      C3013   1.468       .  S
C2503      O2504   1.267       .  A
C2503      C2690   1.534       .  S
O2505      C2520   1.261       .  A
O2505     Al2513   1.879       .  S
C2506      O2516   1.266       .  A
C2506      O2507   1.255       .  A
C2506      C2677   1.482       .  S
O2507     Al2509   1.898       .  S
O2508      C2510   1.263       .  A
O2508     Al2509   1.894       .  S
Al2509     O2517   1.849       .  S
Al2509     O2519   1.885       .  S
Al2509     O2518   1.785       .  S
C2510      O2523   1.274       .  A
C2510      C2658   1.501       .  S
O2511      C2521   1.266       .  A
O2511     Al2513   1.885       .  S
O2512      C2525   1.270       .  A
O2512     Al2522   1.940       .  S
Al2513     O2526   1.955       .  S
Al2513     O2523   1.972       .  S
Al2513     O2518   1.773       .  S
O2514      C2521   1.265       .  A
O2514     Al2522   1.908       .  S
O2515      C2524   1.267       .  A
O2515     Al2522   1.933       .  S
O2516     Al2522   1.926       .  S
O2517      C2524   1.254       .  A
O2518     Al2522   1.780       .  S
O2519      C2520   1.253       .  A
C2520      C2645   1.440       .  S
C2521      C3090   1.482       .  S
C2524      C2706   1.464       .  S
C2525      O2526   1.267       .  A
C2525      C3266   1.530       .  S
O2527      C2542   1.260       .  A
O2527     Al2535   1.870       .  S
C2528      O2538   1.267       .  A
C2528      O2529   1.258       .  A
C2528      C2610   1.495       .  S
O2529     Al2531   1.895       .  S
O2530      C2532   1.260       .  A
O2530     Al2531   1.892       .  S
Al2531     O2539   1.843       .  S
Al2531     O2541   1.902       .  S
Al2531     O2540   1.781       .  S
C2532      O2545   1.270       .  A
C2532      C2629   1.494       .  S
O2533      C2543   1.264       .  A
O2533     Al2535   1.872       .  S
O2534      C2547   1.270       .  A
O2534     Al2544   1.949       .  S
Al2535     O2548   1.943       .  S
Al2535     O2545   1.960       .  S
Al2535     O2540   1.772       .  S
O2536      C2543   1.268       .  A
O2536     Al2544   1.917       .  S
O2537      C2546   1.268       .  A
O2537     Al2544   1.943       .  S
O2538     Al2544   1.935       .  S
O2539      C2546   1.253       .  A
O2540     Al2544   1.786       .  S
O2541      C2542   1.257       .  A
C2542      C2642   1.443       .  S
C2543      C3141   1.474       .  S
C2546      C2770   1.463       .  S
C2547      O2548   1.264       .  A
C2547      C3189   1.529       .  S
O2549      C2564   1.268       .  A
O2549     Al2557   1.954       .  S
C2550      O2560   1.261       .  A
C2550      O2551   1.269       .  A
C2550      C2661   1.506       .  S
O2551     Al2553   1.942       .  S
O2552      C2554   1.266       .  A
O2552     Al2553   1.908       .  S
Al2553     O2561   1.936       .  S
Al2553     O2563   1.948       .  S
Al2553     O2562   1.785       .  S
C2554      O2567   1.259       .  A
C2554      C2818   1.461       .  S
O2555      C2565   1.273       .  A
O2555     Al2557   1.961       .  S
O2556      C2569   1.255       .  A
O2556     Al2566   1.897       .  S
Al2557     O2570   1.890       .  S
Al2557     O2567   1.876       .  S
Al2557     O2562   1.769       .  S
O2558      C2565   1.262       .  A
O2558     Al2566   1.888       .  S
O2559      C2568   1.253       .  A
O2559     Al2566   1.849       .  S
O2560     Al2566   1.915       .  S
O2561      C2568   1.267       .  A
O2562     Al2566   1.778       .  S
O2563      C2564   1.272       .  A
C2564      C2693   1.533       .  S
C2565      C2613   1.492       .  S
C2568      C3205   1.451       .  S
C2569      O2570   1.260       .  A
C2569      C2594   1.452       .  S
O2571      C2586   1.271       .  A
O2571     Al2579   1.955       .  S
C2572      O2582   1.259       .  A
C2572      O2573   1.272       .  A
C2572      C2626   1.483       .  S
O2573     Al3695   1.959   1_545  S
O2574      C2576   1.267   1_545  A
O2574     Al3695   1.908   1_545  S
Al2575     O3693   1.961       .  S
Al2575     O3694   1.907       .  S
Al2575     O2583   1.918       .  S
Al2575     O2585   1.920       .  S
Al2575     O2584   1.795       .  S
C2576      O3709   1.257       .  A
C2576      C2722   1.467   1_565  S
O2577      C3707   1.270       .  A
O2577     Al2579   1.959       .  S
O2578      C2591   1.258       .  A
O2578     Al2588   1.893       .  S
Al2579     O2592   1.883       .  S
Al2579     O2589   1.879       .  S
Al2579     O2584   1.796       .  S
O2580      C3707   1.249       .  A
O2580     Al2588   1.851       .  S
O2581      C2590   1.247       .  A
O2581     Al2588   1.846       .  S
O2582     Al3708   1.884   1_545  S
O2583      C2590   1.258       .  A
O2584     Al2588   1.798       .  S
O2585      C2586   1.264       .  A
C2586      C2757   1.528       .  S
C2587      O3697   1.267   1_545  A
C2587      O3700   1.249       .  A
C2587      C2674   1.498       .  S
Al2588     O3702   1.884       .  S
O2589      C3696   1.257       .  A
C2590      C3298   1.453       .  S
C2591      O2592   1.261       .  A
C2591      C2597   1.452       .  S
C2593      C2594   1.394       .  A
C2593      C2598   1.391       .  A
C2593      H2600   1.085       .  S
C2594      C2595   1.413       .  A
C2595      C2596   1.398       .  A
C2595      C2602   1.505       .  S
C2596      C2597   1.395       .  A
C2596      H2601   1.083       .  S
C2597      C2598   1.412       .  A
C2598      C2599   1.504       .  S
C2599      H2603   1.110       .  S
C2599      H2604   1.108       .  S
C2599      H2605   1.111       .  S
C2602      H2606   1.110       .  S
C2602      H2607   1.108       .  S
C2602      H2608   1.111       .  S
C2609      C2610   1.411       .  A
C2609      C2614   1.406       .  A
C2609      H2616   1.083       .  S
C2610      C2611   1.413       .  A
C2611      C2612   1.411       .  A
C2611      C2618   1.506       .  S
C2612      C2613   1.411       .  A
C2612      H2617   1.084       .  S
C2613      C2614   1.411       .  A
C2614      C2615   1.506       .  S
C2615      H2619   1.111       .  S
C2615      H2620   1.109       .  S
C2615      H2621   1.110       .  S
C2618      H2622   1.110       .  S
C2618      H2623   1.110       .  S
C2618      H2624   1.111       .  S
C2625      C2626   1.406       .  A
C2625      C2630   1.410       .  A
C2625      H2632   1.085       .  S
C2626      C2627   1.407       .  A
C2627      C2628   1.409       .  A
C2627      C2634   1.505       .  S
C2628      C2629   1.412       .  A
C2628      H2633   1.084       .  S
C2629      C2630   1.415       .  A
C2630      C2631   1.506       .  S
C2631      H2635   1.111       .  S
C2631      H2636   1.109       .  S
C2631      H2637   1.110       .  S
C2634      H2638   1.110       .  S
C2634      H2639   1.110       .  S
C2634      H2640   1.111       .  S
C2641      C2642   1.397       .  A
C2641      H2648   1.085       .  S
C2642      C2643   1.408       .  A
C2643      C2644   1.393       .  A
C2643      C2650   1.507       .  S
C2644      H2649   1.085       .  S
C2645      C2646   1.408       .  A
C2646      C2647   1.508       .  S
C2647      H2651   1.111       .  S
C2647      H2652   1.110       .  S
C2647      H2653   1.110       .  S
C2650      H2654   1.109       .  S
C2650      H2655   1.110       .  S
C2650      H2656   1.111       .  S
C2657      C2658   1.411       .  A
C2657      C2662   1.412       .  A
C2657      H2664   1.084       .  S
C2658      C2659   1.413       .  A
C2659      C2660   1.413       .  A
C2659      C2666   1.507       .  S
C2660      C2661   1.414       .  A
C2660      H2665   1.084       .  S
C2661      C2662   1.415       .  A
C2662      C2663   1.507       .  S
C2663      H2667   1.111       .  S
C2663      H2668   1.110       .  S
C2663      H2669   1.110       .  S
C2666      H2670   1.109       .  S
C2666      H2671   1.111       .  S
C2666      H2672   1.111       .  S
C2673      C2674   1.416       .  A
C2673      C2678   1.401       .  A
C2673      H2680   1.083       .  S
C2674      C2675   1.414       .  A
C2675      C2676   1.411       .  A
C2675      C3802   1.506   1_545  S
C2676      C2677   1.410       .  A
C2676      H2681   1.082       .  S
C2677      C2678   1.405       .  A
C2678      C2679   1.508       .  S
C2679      H2683   1.111       .  S
C2679      H2684   1.111       .  S
C2679      H2685   1.110       .  S
C2682      C3795   1.505       .  S
C2682      H2686   1.110       .  S
C2682      H2687   1.110       .  S
C2682      H2688   1.111       .  S
C2689      C2690   1.411       .  A
C2689      C2694   1.423       .  A
C2689      H2696   1.083       .  S
C2690      C2691   1.430       .  A
C2691      C2692   1.423       .  A
C2691      C2698   1.508       .  S
C2692      C2693   1.410       .  A
C2692      H2697   1.083       .  S
C2693      C2694   1.430       .  A
C2694      C2695   1.508       .  S
C2695      H2699   1.111       .  S
C2695      H2700   1.110       .  S
C2695      H2701   1.110       .  S
C2698      H2702   1.110       .  S
C2698      H2703   1.110       .  S
C2698      H2704   1.111       .  S
C2705      C2706   1.406       .  A
C2705      C2710   1.398       .  A
C2705      H2712   1.085       .  S
C2706      C2707   1.410   1_545  A
C2707      C3828   1.398       .  A
C2707      C3834   1.507       .  S
C2708      C3827   1.397       .  A
C2708      C3829   1.403       .  A
C2708      H2713   1.085       .  S
C2709      C3828   1.403   1_545  A
C2709      C2710   1.409       .  A
C2710      C2711   1.507       .  S
C2711      H2715   1.111   1_655  S
C2711      H2716   1.110       .  S
C2711      H2717   1.109   1_655  S
C2714      C3827   1.507       .  S
C2714      H2718   1.107       .  S
C2714      H2719   1.110       .  S
C2714      H2720   1.111       .  S
C2721      C2722   1.401       .  A
C2721      C2726   1.400       .  A
C2721      H2728   1.085       .  S
C2722      C3843   1.415   1_545  A
C2723      C3842   1.416       .  A
C2723      C3844   1.402       .  A
C2723      C2730   1.506       .  S
C2724      C3843   1.400       .  A
C2724      C2725   1.398   1_565  A
C2724      H3849   1.084       .  S
C2725      C2726   1.414       .  A
C2726      C2727   1.508       .  S
C2727      H2731   1.110       .  S
C2727      H2732   1.111       .  S
C2727      H2733   1.110       .  S
H2729      C3844   1.084       .  S
C2730      H2734   1.110       .  S
C2730      H2735   1.107       .  S
C2730      H2736   1.110       .  S
C2737      C2738   1.412       .  A
C2737      C2742   1.411       .  A
C2737      H2744   1.084       .  S
C2738      C2739   1.417       .  A
C2739      C2740   1.414       .  A
C2739      C3866   1.506   1_545  S
C2740      C2741   1.410       .  A
C2740      H2745   1.083       .  S
C2741      C2742   1.411       .  A
C2742      C2743   1.506       .  S
C2743      H2747   1.111       .  S
C2743      H2748   1.110       .  S
C2743      H2749   1.111       .  S
C2746      C3859   1.507       .  S
C2746      H2750   1.110       .  S
C2746      H3871   1.110       .  S
C2746      H2752   1.110       .  S
H2751      C3866   1.110   1_545  S
C2753      C2754   1.415       .  A
C2753      C2758   1.425       .  A
C2753      H2760   1.083       .  S
C2754      C2755   1.426       .  A
C2755      C2756   1.417       .  A
C2755      C2762   1.509       .  S
C2756      C2757   1.411       .  A
C2756      H2761   1.083       .  S
C2757      C2758   1.423       .  A
C2758      C2759   1.506       .  S
C2759      H2763   1.111       .  S
C2759      H2764   1.110       .  S
C2759      H2765   1.110       .  S
C2762      H2766   1.110       .  S
C2762      H2767   1.111       .  S
C2762      H2768   1.111       .  S
C2769      C2770   1.404       .  A
C2769      C2774   1.399       .  A
C2769      H2776   1.085       .  S
C2770      C2771   1.408       .  A
C2771      C2772   1.400       .  A
C2771      C2778   1.507       .  S
C2772      C2773   1.406       .  A
C2772      H2777   1.085       .  S
C2773      C2774   1.412       .  A
C2774      C2775   1.506       .  S
C2775      H2779   1.111       .  S
C2775      H2780   1.110       .  S
C2775      H2781   1.109       .  S
C2778      H2782   1.106       .  S
C2778      H2783   1.110       .  S
C2778      H2784   1.111       .  S
C2785      C2786   1.402       .  A
C2786      C2787   1.406       .  A
C2787      C2788   1.391       .  A
C2787      C2794   1.505       .  S
C2788      H2793   1.086       .  S
C2789      C2790   1.403       .  A
C2790      C2791   1.506       .  S
C2791      H2795   1.111       .  S
C2791      H2796   1.108       .  S
C2791      H2797   1.110       .  S
C2794      H2798   1.105       .  S
C2794      H2799   1.109       .  S
C2794      H2800   1.111       .  S
C2801      C2802   1.413       .  A
C2801      C2806   1.416       .  A
C2801      H2808   1.084       .  S
C2802      C2803   1.414       .  A
C2803      C2804   1.412       .  A
C2803      C2810   1.507       .  S
C2804      C2805   1.412       .  A
C2804      H2809   1.083       .  S
C2805      C2806   1.417       .  A
C2806      C2807   1.507       .  S
C2807      H2811   1.110       .  S
C2807      H2812   1.111       .  S
C2807      H2813   1.109       .  S
C2810      H2814   1.111       .  S
C2810      H2815   1.110       .  S
C2810      H2816   1.111       .  S
C2817      C2818   1.405       .  A
C2817      C2822   1.398       .  A
C2817      H2824   1.084       .  S
C2818      C2819   1.405       .  A
C2819      C2820   1.397       .  A
C2819      C2826   1.507       .  S
C2820      C2821   1.409       .  A
C2820      H2825   1.084       .  S
C2821      C2822   1.409       .  A
C2822      C2823   1.507       .  S
C2823      H2827   1.111       .  S
C2823      H2828   1.110       .  S
C2823      H2829   1.109       .  S
C2826      H2830   1.108       .  S
C2826      H2831   1.111       .  S
C2826      H2832   1.111       .  S
C2833      C2834   1.397       .  A
C2833      C2838   1.394       .  A
C2833      H2840   1.085       .  S
C2834      C2835   1.410       .  A
C2835      C2836   1.394       .  A
C2835      C2842   1.506       .  S
C2836      C2837   1.397       .  A
C2836      H2841   1.085       .  S
C2837      C2838   1.411       .  A
C2838      C2839   1.506       .  S
C2839      H2843   1.111       .  S
C2839      H2844   1.110       .  S
C2839      H2845   1.107       .  S
C2842      H2846   1.110       .  S
C2842      H2847   1.107       .  S
C2842      H2848   1.111       .  S
C2849      C2850   1.409       .  A
C2849      C2854   1.409       .  A
C2849      H2856   1.084   1_655  S
C2850      C2851   1.416       .  A
C2851      C2852   1.407       .  A
C2851      C2858   1.506       .  S
C2852      C2853   1.407       .  A
C2852      H2857   1.084       .  S
C2853      C2854   1.414       .  A
C2854      C2855   1.507       .  S
C2855      H2859   1.111       .  S
C2855      H2860   1.110       .  S
C2855      H2861   1.111       .  S
C2858      H2864   1.111       .  S
C2865      C2866   1.400       .  A
C2865      C2870   1.408       .  A
C2865      H2872   1.084       .  S
C2866      C2867   1.428       .  A
C2867      C2868   1.410       .  A
C2867      C2874   1.510       .  S
C2868      C2869   1.400       .  A
C2868      H2873   1.084       .  S
C2869      C2870   1.425       .  A
C2870      C2871   1.508       .  S
C2871      H2875   1.111       .  S
C2871      H2876   1.108       .  S
C2871      H2877   1.110       .  S
C2874      H2878   1.106       .  S
C2874      H2879   1.110       .  S
C2874      H2880   1.111       .  S
C2881      C2882   1.397       .  A
C2881      C2886   1.399       .  A
C2881      H2888   1.085       .  S
C2882      C2883   1.405       .  A
C2883      C2884   1.396       .  A
C2883      C2890   1.506       .  S
C2884      C2885   1.408       .  A
C2884      H2889   1.084       .  S
C2885      C2886   1.423       .  A
C2886      C2887   1.509       .  S
C2887      H2891   1.111       .  S
C2887      H2892   1.110       .  S
C2887      H2893   1.109       .  S
C2890      H2894   1.105       .  S
C2890      H2895   1.110       .  S
C2890      H2896   1.111       .  S
C2897      C2898   1.401       .  A
C2897      C2902   1.404       .  A
C2897      H2904   1.085       .  S
C2898      C2899   1.407       .  A
C2899      C2900   1.401       .  A
C2899      C2906   1.508       .  S
C2900      C2901   1.408       .  A
C2900      H2905   1.084       .  S
C2901      C2902   1.419       .  A
C2902      C2903   1.508       .  S
C2903      H2907   1.111       .  S
C2903      H2908   1.110       .  S
C2903      H2909   1.110       .  S
C2906      H2910   1.110       .  S
C2906      H2911   1.110       .  S
C2906      H2912   1.111       .  S
C2913      C2918   1.395       .  A
C2913      H2920   1.084       .  S
C2914      C2915   1.405   1_455  A
C2915      C2922   1.502       .  S
C2916      C2917   1.401       .  A
C2917      C2918   1.407       .  A
C2918      C2919   1.506       .  S
C2919      H2923   1.111       .  S
C2919      H2924   1.108       .  S
C2919      H2925   1.110       .  S
C2922      H2926   1.110       .  S
C2922      H2927   1.111       .  S
C2922      H2928   1.111       .  S
C2929      C2930   1.412       .  A
C2929      C2934   1.420   1_556  A
C2929      H2936   1.083       .  S
C2930      C2931   1.425       .  A
C2931      C2932   1.419       .  A
C2931      C2938   1.507       .  S
C2932      C2933   1.412   1_556  A
C2932      H2937   1.083       .  S
C2933      C2934   1.425       .  A
C2934      C2935   1.507       .  S
C2935      H2939   1.111       .  S
C2935      H2940   1.110       .  S
C2935      H2941   1.110       .  S
C2938      H2942   1.111       .  S
C2938      H2943   1.110       .  S
C2938      H2944   1.111       .  S
C2945      C2946   1.406   1_554  A
C2945      C2950   1.397       .  A
C2945      H2952   1.084       .  S
C2946      C2947   1.427   1_556  A
C2947      C2948   1.400       .  A
C2947      C2954   1.510       .  S
C2948      C2949   1.395       .  A
C2948      H2953   1.085       .  S
C2949      C2950   1.407       .  A
C2950      C2951   1.502       .  S
C2951      H2955   1.110       .  S
C2951      H2956   1.111       .  S
C2951      H2957   1.107       .  S
C2954      H2958   1.107   1_554  S
C2954      H2959   1.110   1_554  S
C2954      H2960   1.111       .  S
C2961      C2962   1.402       .  A
C2961      C2966   1.409       .  A
C2961      H2968   1.084       .  S
C2962      C2963   1.430       .  A
C2963      C2964   1.411       .  A
C2963      C2970   1.508       .  S
C2964      C2965   1.399       .  A
C2964      H2969   1.084       .  S
C2965      C2966   1.423       .  A
C2966      C2967   1.508       .  S
C2967      H2971   1.111       .  S
C2967      H2972   1.109       .  S
C2970      H2974   1.106       .  S
C2970      H2975   1.110       .  S
C2970      H2976   1.111       .  S
C2977      C2978   1.396       .  A
C2977      C2982   1.409       .  A
C2977      H2984   1.085       .  S
C2978      C2979   1.421       .  A
C2979      C2980   1.414       .  A
C2979      C2986   1.506       .  S
C2980      C2981   1.403       .  A
C2980      H2985   1.085       .  S
C2981      C2982   1.429       .  A
C2982      C2983   1.509       .  S
C2983      H2987   1.107       .  S
C2983      H2988   1.111       .  S
C2983      H2989   1.110       .  S
C2986      H2990   1.110       .  S
C2986      H2991   1.108       .  S
C2986      H2992   1.111       .  S
C2993      C4114   1.413       .  A
C2993      C4118   1.422   1_556  A
C2993      H3000   1.084       .  S
C2994      C3469   1.520       .  S
C2994      C4113   1.413       .  A
C2994      C2995   1.420   1_565  A
C2995      C2996   1.419       .  A
C2995      C3002   1.507       .  S
C2996      C2997   1.411       .  A
C2996      H3001   1.084       .  S
C2997      C2998   1.421   1_556  A
C2998      C4113   1.421   1_544  A
C2998      C4119   1.506   1_545  S
C2999      C4118   1.507       .  S
C2999      H3003   1.111       .  S
C2999      H4124   1.109       .  S
C2999      H3005   1.111       .  S
C3002      H3006   1.111       .  S
C3002      H3007   1.109       .  S
C3002      H3008   1.111       .  S
H3004      C4119   1.109       .  S
C3009      C3010   1.408   1_554  A
C3009      C3014   1.404       .  A
C3009      H3016   1.084       .  S
C3010      C3011   1.411   1_556  A
C3011      C3012   1.395       .  A
C3011      C3018   1.509   1_554  S
C3012      C3013   1.405       .  A
C3012      H3017   1.083       .  S
C3013      C3014   1.409       .  A
C3014      C3015   1.508       .  S
C3015      H3019   1.111       .  S
C3015      H3020   1.108       .  S
C3015      H3021   1.110       .  S
C3018      H3022   1.111       .  S
C3018      H3023   1.108       .  S
C3018      H3024   1.111   1_556  S
C3025      C3026   1.399       .  A
C3025      C3030   1.392       .  A
C3025      H3032   1.085       .  S
C3026      C3027   1.409       .  A
C3027      C3028   1.392       .  A
C3027      C3034   1.507       .  S
C3028      C3029   1.396       .  A
C3028      H3033   1.085       .  S
C3029      C3030   1.407       .  A
C3030      C3031   1.508       .  S
C3031      H3035   1.111       .  S
C3031      H3036   1.110       .  S
C3031      H3037   1.109       .  S
C3034      H3038   1.108       .  S
C3034      H3039   1.110       .  S
C3034      H3040   1.111       .  S
C3041      C4162   1.406   1_545  A
C3041      C3046   1.409       .  A
C3041      H3048   1.083       .  S
C3042      C4161   1.405       .  A
C3042      C3043   1.412       .  A
C3043      C3044   1.411       .  A
C3043      C3050   1.506       .  S
C3044      C4165   1.407       .  A
C3045      C4164   1.404   1_545  A
C3045      C3046   1.412       .  A
C3046      C3047   1.506       .  S
C3047      H3051   1.111       .  S
C3047      H3052   1.110       .  S
C3047      H3053   1.108       .  S
C3050      H3054   1.110       .  S
C3050      H3055   1.111       .  S
C3050      H3056   1.111       .  S
C3057      C3058   1.414       .  A
C3057      C3062   1.414       .  A
C3057      H3064   1.083       .  S
C3058      C3059   1.416       .  A
C3059      C3060   1.415       .  A
C3059      C3066   1.506       .  S
C3060      C3061   1.412       .  A
C3060      H3065   1.084       .  S
C3061      C3062   1.413       .  A
C3062      C3063   1.506       .  S
C3063      H3067   1.110       .  S
C3063      H3068   1.109       .  S
C3063      H3069   1.110       .  S
C3066      H3070   1.110       .  S
C3066      H3071   1.111       .  S
C3066      H3072   1.111       .  S
C3073      C3074   1.412       .  A
C3073      C3078   1.424       .  A
C3073      H3080   1.083       .  S
C3074      C3075   1.428       .  A
C3075      C3076   1.423       .  A
C3075      C3082   1.508       .  S
C3076      C3077   1.412       .  A
C3076      H3081   1.083       .  S
C3077      C3078   1.428       .  A
C3078      C3079   1.507       .  S
C3079      H3083   1.111       .  S
C3079      H3084   1.110       .  S
C3079      H3085   1.110       .  S
C3082      H3086   1.110       .  S
C3082      H3087   1.110       .  S
C3082      H3088   1.111       .  S
C3089      C3090   1.406       .  A
C3089      C3094   1.399       .  A
C3089      H3096   1.084       .  S
C3090      C3091   1.426       .  A
C3091      C3092   1.399       .  A
C3091      C3098   1.510       .  S
C3092      C3093   1.393       .  A
C3092      H3097   1.084       .  S
C3093      C3094   1.409       .  A
C3094      C3095   1.508       .  S
C3095      H3099   1.111       .  S
C3095      H3100   1.110       .  S
C3095      H3101   1.109       .  S
C3098      H3102   1.106       .  S
C3098      H3103   1.110       .  S
C3098      H3104   1.111   1_545  S
C3105      C3106   1.404       .  A
C3105      C4230   1.396       .  A
C3105      H3112   1.085       .  S
C3106      C3107   1.410       .  A
C3107      C3108   1.401       .  A
C3107      C3114   1.507   1_545  S
C3108      C3109   1.407       .  A
C3108      H3113   1.085   1_545  S
C3109      C3468   1.463   1_545  S
C3109      C4230   1.408       .  A
C3110      C4225   1.395       .  A
C3110      C4229   1.407       .  A
C3110      C3111   1.502       .  S
C3111      H3115   1.111       .  S
C3111      H3116   1.107       .  S
C3111      H3117   1.110       .  S
C3114      H3118   1.110       .  S
C3114      H3119   1.110   1_565  S
C3114      H3120   1.111       .  S
C3121      C3122   1.413       .  A
C3121      C3126   1.422       .  A
C3121      H3128   1.083       .  S
C3122      C3123   1.427       .  A
C3123      C3124   1.422       .  A
C3123      C3130   1.508       .  S
C3124      C3125   1.411       .  A
C3124      H3129   1.084       .  S
C3125      C3126   1.424       .  A
C3126      C3127   1.507       .  S
C3127      H3131   1.111       .  S
C3127      H3132   1.110       .  S
C3127      H3133   1.111       .  S
C3130      H3134   1.110       .  S
C3130      H3135   1.110       .  S
C3130      H3136   1.111       .  S
C3137      C3138   1.396       .  A
C3137      C3142   1.397       .  A
C3137      H3144   1.085       .  S
C3138      C3139   1.409       .  A
C3139      C3140   1.394       .  A
C3139      C3146   1.507       .  S
C3140      C3141   1.405       .  A
C3140      H3145   1.085       .  S
C3141      C3142   1.423       .  A
C3142      C3143   1.509       .  S
C3143      H3147   1.111       .  S
C3143      H3148   1.106       .  S
C3143      H3149   1.110       .  S
C3146      H3150   1.110       .  S
C3146      H3151   1.111       .  S
C3146      H3152   1.110       .  S
C3153      C3154   1.393       .  A
C3153      C3158   1.395       .  A
C3153      H3160   1.085       .  S
C3154      C3155   1.410       .  A
C3155      C3156   1.396       .  A
C3155      C3162   1.507       .  S
C3156      C3157   1.404       .  A
C3156      H3161   1.085       .  S
C3157      C3158   1.421       .  A
C3158      C3159   1.507       .  S
C3159      H3163   1.111       .  S
C3159      H3164   1.101       .  S
C3159      H3165   1.110       .  S
C3162      H3166   1.110       .  S
C3162      H3167   1.111       .  S
C3162      H3168   1.110       .  S
C3169      C3170   1.395       .  A
C3169      C3174   1.393       .  A
C3169      H3176   1.085       .  S
C3170      C3171   1.409       .  A
C3171      C3172   1.391       .  A
C3171      C3178   1.506       .  S
C3172      C3173   1.397       .  A
C3172      H3177   1.085       .  S
C3173      C3174   1.411       .  A
C3174      C3175   1.505       .  S
C3175      H3179   1.111       .  S
C3175      H3180   1.107       .  S
C3175      H3181   1.109       .  S
C3178      H3182   1.108       .  S
C3178      H3183   1.109       .  S
C3178      H3184   1.111       .  S
C3185      C3186   1.409       .  A
C3185      H3192   1.083       .  S
C3187      C3188   1.421       .  A
C3187      C3194   1.508       .  S
C3188      C3189   1.408       .  A
C3188      H3193   1.083       .  S
C3189      C3190   1.430       .  A
C3190      C3191   1.508       .  S
C3191      H3195   1.111       .  S
C3191      H3196   1.110       .  S
C3191      H3197   1.110       .  S
C3194      H3198   1.110       .  S
C3194      H3200   1.111       .  S
C3201      C3202   1.407       .  A
C3201      C3206   1.395       .  A
C3201      H3208   1.085       .  S
C3202      C3203   1.425       .  A
C3203      C3204   1.399       .  A
C3203      C3210   1.510       .  S
C3204      C3205   1.396       .  A
C3204      H3209   1.086       .  S
C3205      C3206   1.407       .  A
C3206      C3207   1.507       .  S
C3207      H3211   1.110       .  S
C3207      H3212   1.111       .  S
C3207      H3213   1.110       .  S
C3210      H3214   1.110       .  S
C3210      H3215   1.108       .  S
C3210      H3216   1.111       .  S
C3217      C3218   1.405       .  A
C3217      C3222   1.399       .  A
C3217      H3224   1.085       .  S
C3218      C3219   1.410       .  A
C3219      C3220   1.399       .  A
C3219      C3226   1.508       .  S
C3220      C3221   1.405       .  A
C3220      H3225   1.085       .  S
C3221      C3222   1.411       .  A
C3222      C3223   1.508       .  S
C3223      H3227   1.111   1_655  S
C3223      H3228   1.110   1_655  S
C3223      H3229   1.111       .  S
C3226      H3230   1.110       .  S
C3226      H3231   1.108       .  S
C3226      H3232   1.111       .  S
C3233      C3234   1.411       .  A
C3233      C3238   1.407       .  A
C3233      H3240   1.084       .  S
C3234      C3235   1.415       .  A
C3235      C3236   1.408       .  A
C3235      C3242   1.508       .  S
C3236      C3237   1.409       .  A
C3236      H3241   1.084       .  S
C3237      C3238   1.412       .  A
C3238      C3239   1.507       .  S
C3239      H3243   1.111       .  S
C3239      H3244   1.109       .  S
C3239      H3245   1.111       .  S
C3242      H3246   1.110       .  S
C3242      H3247   1.111       .  S
C3242      H3248   1.111       .  S
C3249      C3250   1.403       .  A
C3249      C3254   1.411       .  A
C3249      H3256   1.084       .  S
C3250      C3251   1.425       .  A
C3251      C3252   1.408       .  A
C3251      C3258   1.507       .  S
C3252      C3253   1.400       .  A
C3252      H3257   1.084       .  S
C3253      C3254   1.424       .  A
C3254      C3255   1.508       .  S
C3255      H3259   1.111       .  S
C3255      H3260   1.109       .  S
C3255      H3261   1.110       .  S
C3258      H4382   1.104       .  S
C3258      H4383   1.110       .  S
C3258      H3264   1.111       .  S
H3262      C4378   1.105       .  S
H3263      C4378   1.110       .  S
C3265      C3270   1.421   1_545  A
C3265      H3272   1.084   1_545  S
C3266      C3267   1.429   1_655  A
C3267      C3274   1.508   1_455  S
C3268      C3269   1.412       .  A
C3268      H3273   1.084       .  S
C3269      C3376   1.527   1_545  S
C3269      C3270   1.425   1_545  A
C3270      C4391   1.507       .  S
C3271      C4390   1.508       .  S
C3271      H3275   1.111       .  S
C3271      H3276   1.111       .  S
C3271      H4397   1.110       .  S
C3274      H3278   1.111       .  S
C3274      H3279   1.110   1_655  S
C3274      H3280   1.111   1_655  S
H3277      C4391   1.111       .  S
C3281      C3282   1.405       .  A
C3281      C3286   1.403       .  A
C3281      H3288   1.085       .  S
C3282      C3283   1.403       .  A
C3283      C3284   1.397   1_545  A
C3283      C3290   1.508   1_545  S
C3284      C3285   1.414   1_565  A
C3284      H4409   1.085       .  S
C3285      C3380   1.478   1_545  S
C3285      C3286   1.411       .  A
C3286      C3287   1.508       .  S
C3287      H3291   1.111       .  S
C3287      H3292   1.110       .  S
C3287      H3293   1.108       .  S
H3289      C4404   1.085       .  S
C3290      H3294   1.110       .  S
C3290      H4415   1.109       .  S
C3290      H4416   1.110       .  S
H3295      C4410   1.109       .  S
H3296      C4410   1.110       .  S
C3297      C3298   1.397       .  A
C3297      C3302   1.399       .  A
C3297      H3304   1.086       .  S
C3298      C3299   1.409       .  A
C3299      C3300   1.400       .  A
C3299      C3306   1.505       .  S
C3300      C3301   1.406       .  A
C3300      H3305   1.085       .  S
C3301      C3302   1.423       .  A
C3302      C4423   1.509       .  S
C3303      C4422   1.509   1_545  S
C3303      H3307   1.111       .  S
C3303      H3308   1.110       .  S
C3303      H4429   1.104       .  S
C3306      H3310   1.109       .  S
C3306      H3311   1.110       .  S
C3306      H3312   1.110       .  S
H3309      C4423   1.104       .  S
C3313      C3314   1.396       .  A
C3313      H3320   1.085       .  S
C3314      C3315   1.409       .  A
C3315      C3316   1.393       .  A
C3315      C3322   1.506       .  S
C3316      H3321   1.085       .  S
C3317      C3318   1.408       .  A
C3318      C3319   1.507       .  S
C3319      H3323   1.111       .  S
C3319      H3324   1.110       .  S
C3319      H3325   1.108       .  S
C3322      H3326   1.110       .  S
C3322      H3327   1.108       .  S
C3322      H3328   1.111       .  S
C3329      C4450   1.400   1_545  A
C3329      C3334   1.408       .  A
C3329      H4456   1.084   1_545  S
C3330      C4449   1.402       .  A
C3330      C3331   1.426       .  A
C3331      C4452   1.411       .  A
C3331      C3338   1.509       .  S
C3332      C4451   1.409       .  A
C3332      C3333   1.401       .  A
C3332      H3337   1.084       .  S
C3333      C3334   1.424       .  A
C3334      C3335   1.509       .  S
C3335      H3339   1.111       .  S
C3335      H3340   1.110   1_545  S
C3335      H3341   1.108       .  S
H3336      C4449   1.084       .  S
C3338      H3342   1.110       .  S
C3338      H3343   1.107       .  S
C3338      H3344   1.111       .  S
C3345      C3346   1.414       .  A
C3345      C3350   1.412       .  A
C3345      H3352   1.083       .  S
C3346      C3347   1.415       .  A
C3347      C3348   1.414       .  A
C3347      C3354   1.506       .  S
C3348      C3349   1.413       .  A
C3348      H3353   1.084       .  S
C3349      C3350   1.412       .  A
C3350      C3351   1.506       .  S
C3351      H3355   1.111       .  S
C3351      H3356   1.110       .  S
C3351      H3357   1.110       .  S
C3354      H3358   1.110       .  S
C3354      H3359   1.109       .  S
C3354      H3360   1.110       .  S
O3361      C3376   1.268       .  A
O3361     Al3369   1.956       .  S
C3362      O3372   1.255       .  A
C3362      O3363   1.266       .  A
C3362      C4450   1.493       .  S
O3363     Al3365   1.933       .  S
O3364      C3366   1.271       .  A
O3364     Al3365   1.929       .  S
Al3365     O3374   1.779       .  S
C3366      O3379   1.266       .  A
C3366      C4421   1.489       .  S
O3367      C3377   1.276       .  A
O3367     Al3369   1.984       .  S
O3368      C3381   1.256       .  A
O3368     Al3378   1.897       .  S
Al3369     O3382   1.881       .  S
Al3369     O3379   1.885       .  S
Al3369     O3374   1.772       .  S
O3370      C3377   1.259       .  A
O3370     Al3378   1.883       .  S
O3371      C3380   1.251       .  A
O3371     Al3378   1.833       .  S
O3372     Al3378   1.898       .  S
O3374     Al3378   1.778       .  S
C3377      C4466   1.501       .  S
C3381      O3382   1.261       .  A
C3381      C4434   1.444       .  S
O3383      C3398   1.268       .  A
O3383     Al3391   1.952       .  S
C3384      O3394   1.260       .  A
C3384      O3385   1.267       .  A
C3384      C4354   1.489       .  S
O3385     Al3387   1.926       .  S
O3386      C3388   1.265       .  A
O3386     Al3387   1.922       .  S
Al3387     O3395   1.947       .  S
Al3387     O3397   1.944       .  S
Al3387     O3396   1.783       .  S
C3388      O3401   1.259       .  A
C3388      C4322   1.479       .  S
O3389      C3399   1.272       .  A
O3389     Al3391   1.960       .  S
O3390      C3403   1.255       .  A
O3390     Al3400   1.899       .  S
Al3391     O3404   1.866       .  S
Al3391     O3401   1.870       .  S
Al3391     O3396   1.764       .  S
O3392      C3399   1.260       .  A
O3392     Al3400   1.893       .  S
O3393      C3402   1.254       .  A
O3393     Al3400   1.854       .  S
O3394     Al3400   1.903       .  S
O3395      C3402   1.268       .  A
O3396     Al3400   1.781       .  S
O3397      C3398   1.272       .  A
C3398      C4306   1.525       .  S
C3399      C4373   1.497       .  S
C3402      C4338   1.467       .  S
C3403      O3404   1.257       .  A
C3403      C4437   1.440       .  S
O3405      C3420   1.258       .  A
O3405     Al3413   1.882       .  S
C3406      O3416   1.271       .  A
C3406      O3407   1.255       .  A
C3406      C4469   1.501       .  S
O3407     Al3409   1.895       .  S
O3408      C3410   1.264       .  A
O3408     Al3409   1.888       .  S
Al3409     O3417   1.842       .  S
Al3409     O3419   1.901       .  S
Al3409     O3418   1.781       .  S
C3410      O3423   1.274       .  A
C3410      C4357   1.488       .  S
O3411      C3421   1.256       .  A
O3411     Al3413   1.860       .  S
O3412      C3425   1.268       .  A
O3412     Al3422   1.942       .  S
Al3413     O3426   1.947       .  S
Al3413     O3423   1.957       .  S
Al3413     O3418   1.765       .  S
O3414      C3421   1.269       .  A
O3414     Al3422   1.929       .  S
O3415      C3424   1.270       .  A
O3415     Al3422   1.938       .  S
O3416     Al3422   1.954       .  S
O3417      C3424   1.256       .  A
O3418     Al3422   1.784       .  S
O3419      C3420   1.253       .  A
C3420      C4290   1.446       .  S
C3421      C4277   1.464       .  S
C3424      C4258   1.450       .  S
C3425      O3426   1.267       .  A
C3425      C4242   1.529       .  S
O3427      C3442   1.258       .  A
O3427     Al3435   1.881       .  S
C3428      C4370   1.506       .  S
O3429     Al3431   1.906       .  S
O3430      C3432   1.260       .  A
O3430     Al3431   1.885       .  S
Al3431     O3439   1.850       .  S
Al3431     O3441   1.899       .  S
Al3431     O3440   1.780       .  S
C3432      O3445   1.277       .  A
C3432      C4453   1.497       .  S
O3433      C3443   1.259       .  A
O3433     Al3435   1.881       .  S
O3434      C3447   1.268       .  A
O3434     Al3444   1.931       .  S
Al3435     O3448   1.963       .  S
Al3435     O3445   1.976       .  S
Al3435     O3440   1.770       .  S
O3436      C3443   1.266       .  A
O3436     Al3444   1.904       .  S
O3437      C3446   1.268       .  A
O3437     Al3444   1.940       .  S
O3438     Al3444   1.937       .  S
O3439      C3446   1.254       .  A
O3440     Al3444   1.781       .  S
O3441      C3442   1.254       .  A
C3442      C4293   1.448       .  S
C3443      C4226   1.467       .  S
C3446      C4213   1.456       .  S
C3447      O3448   1.271       .  A
C3447      C4194   1.522       .  S
O3449      C3464   1.261       .  A
O3449     Al3457   1.866       .  S
C3450      O3460   1.265       .  A
C3450      O3451   1.260       .  A
C3450      C4162   1.486       .  S
O3451     Al3453   1.905       .  S
O3452      C3454   1.259       .  A
O3452     Al3453   1.894       .  S
Al3453     O3461   1.840       .  S
Al3453     O3463   1.913       .  S
Al3453     O3462   1.782       .  S
C3454      O3467   1.270       .  A
C3454      C4181   1.501       .  S
O3455      C3465   1.261       .  A
O3455     Al3457   1.864       .  S
Al3457     O3470   1.966       .  S
Al3457     O3467   1.969       .  S
Al3457     O3462   1.774       .  S
O3458      C3465   1.274       .  A
O3458     Al3466   1.939       .  S
O3460     Al3466   1.921       .  S
O3461      C3468   1.251       .  A
O3462     Al3466   1.785       .  S
O3463      C3464   1.262       .  A
C3464      C4146   1.445       .  S
C3465      C4130   1.470       .  S
C3469      O3470   1.267       .  A
O3471      C3486   1.258       .  A
O3471     Al3479   1.877       .  S
C3472      O3482   1.268       .  A
C3472      O3473   1.260       .  A
C3472      C4082   1.495       .  S
O3473     Al3475   1.918       .  S
O3474      C3476   1.260       .  A
O3474     Al3475   1.887       .  S
Al3475     O3483   1.845       .  S
Al3475     O3485   1.900       .  S
Al3475     O3484   1.776       .  S
C3476      O3489   1.279       .  A
C3476      C4101   1.506       .  S
O3477      C3487   1.264       .  A
O3477     Al3479   1.879       .  S
O3478      C3491   1.267       .  A
O3478     Al3488   1.925       .  S
Al3479     O3492   1.975       .  S
Al3479     O3489   1.994       .  S
Al3479     O3484   1.769       .  S
O3480      C3487   1.264       .  A
O3480     Al3488   1.912       .  S
O3481      C3490   1.268       .  A
O3481     Al3488   1.936       .  S
O3482     Al3488   1.935       .  S
O3483      C3490   1.252       .  A
O3484     Al3488   1.778       .  S
O3485      C3486   1.255       .  A
C3486      C4149   1.444       .  S
C3487      C4066   1.483       .  S
C3490      C4274   1.459       .  S
C3491      O3492   1.273       .  A
C3491      C4050   1.528       .  S
O3493      C3508   1.267       .  A
O3493     Al3501   1.946       .  S
C3494      C4098   1.495       .  S
O3495     Al3497   1.959       .  S
O3496      C3498   1.266       .  A
O3496     Al3497   1.902       .  S
Al3497     O3505   1.923       .  S
Al3497     O3507   1.938       .  S
Al3497     O3506   1.795       .  S
C3498      O3511   1.256       .  A
C3498      C4402   1.453       .  S
O3499      C3509   1.266       .  A
O3499     Al3501   1.948       .  S
O3500      C3513   1.258       .  A
O3500     Al3510   1.896       .  S
Al3501     O3514   1.878       .  S
Al3501     O3511   1.870       .  S
Al3501     O3506   1.791       .  S
O3502      C3509   1.251       .  A
O3502     Al3510   1.880       .  S
O3503      C3512   1.251       .  A
O3503     Al3510   1.857       .  S
O3504     Al3510   1.894       .  S
O3505      C3512   1.262       .  A
O3506     Al3510   1.802       .  S
O3507      C3508   1.265       .  A
C3508      C4245   1.531       .  S
C3512      C4018   1.454       .  S
C3513      O3514   1.260       .  A
C3513      C4037   1.454       .  S
O3515      C3530   1.272       .  A
O3515     Al3523   1.962       .  S
C3516      O3526   1.262       .  A
C3516      O3517   1.269       .  A
C3516      C4178   1.505       .  S
O3517     Al3519   1.939       .  S
O3518      C3520   1.266       .  A
O3518     Al3519   1.910       .  S
Al3519     O3527   1.943       .  S
Al3519     O3529   1.932       .  S
Al3519     O3528   1.786       .  S
C3520      O3533   1.259       .  A
C3520      C4341   1.474       .  S
O3521     Al3523   1.976   1_455  S
O3522      C3535   1.253       .  A
O3522     Al3532   1.895       .  S
Al3523     O3536   1.896       .  S
Al3523     O3533   1.880       .  S
Al3523     O3528   1.773       .  S
O3524     Al3532   1.888       .  S
O3525      C3534   1.254       .  A
O3525     Al3532   1.855       .  S
O3526     Al3532   1.921       .  S
O3527      C3534   1.268       .  A
O3528     Al3532   1.777       .  S
O3529      C3530   1.270       .  A
C3530      C4197   1.522       .  S
C3531      C4085   1.501       .  S
C3534      C4002   1.454       .  S
C3535      O3536   1.259       .  A
C3535      C4034   1.453   1_655  S
O3537      C3552   1.271       .  A
O3537     Al3545   1.964       .  S
C3538      O3548   1.262       .  A
C3538      O3539   1.266       .  A
C3538      C3973   1.499       .  S
O3539     Al3541   1.927       .  S
O3540      C3542   1.268   1_554  A
O3540     Al3541   1.926       .  S
Al3541     O3549   1.946       .  S
Al3541     O3551   1.932       .  S
Al3541     O3550   1.778       .  S
C3542      O3555   1.261   1_556  A
C3542      C4005   1.482       .  S
O3543      C3553   1.275       .  A
O3543     Al3545   1.976       .  S
O3544      C3557   1.259       .  A
O3544     Al3554   1.919       .  S
Al3545     O3558   1.869       .  S
Al3545     O3555   1.868       .  S
Al3545     O3550   1.767       .  S
O3546      C3553   1.257       .  A
O3546     Al3554   1.882       .  S
O3547      C3556   1.251       .  A
O3547     Al3554   1.833       .  S
O3548     Al3554   1.920       .  S
O3549      C3556   1.269       .  A
O3550     Al3554   1.774       .  S
O3551      C3552   1.267       .  A
C3552      C4053   1.526       .  S
C3553      C3989   1.494       .  S
C3556      C3941   1.464       .  S
C3557      O3558   1.258       .  A
C3557      C3954   1.448       .  S
O3559      C3574   1.257       .  A
O3559     Al3567   1.880       .  S
C3560      O3570   1.269       .  A
C3560      O3561   1.260       .  A
C3560      C3922   1.499       .  S
O3561     Al3563   1.907       .  S
O3562      C3564   1.265       .  A
O3562     Al3563   1.899       .  S
Al3563     O3571   1.850       .  S
Al3563     O3573   1.892       .  S
Al3563     O3572   1.778       .  S
C3564      O3577   1.274       .  A
O3565      C3575   1.258       .  A
O3565     Al3567   1.869       .  S
O3566      C3579   1.268       .  A
O3566     Al3576   1.939       .  S
Al3567     O3580   1.944       .  S
Al3567     O3577   1.965       .  S
Al3567     O3572   1.765       .  S
O3568      C3575   1.269       .  A
O3568     Al3576   1.930       .  S
O3569      C3578   1.270       .  A
O3569     Al3576   1.947       .  S
O3570     Al3576   1.936       .  S
O3571      C3578   1.254       .  A
O3572     Al3576   1.785       .  S
O3573      C3574   1.255       .  A
C3574      C3906   1.443       .  S
C3575      C3893   1.467       .  S
C3578      C4069   1.456       .  S
C3579      O3580   1.267       .  A
C3579      C3874   1.521       .  S
O3581      C3596   1.272       .  A
O3581     Al3589   1.969       .  S
C3582      O3592   1.261       .  A
C3582      O3583   1.268       .  A
C3582      C3861   1.490       .  S
O3583     Al3585   1.934       .  S
O3584      C3586   1.274   1_554  A
O3584     Al3585   1.946       .  S
Al3585     O3593   1.965       .  S
Al3585     O3595   1.937       .  S
Al3585     O3594   1.777       .  S
C3586      O3599   1.258   1_556  A
C3586      C4021   1.481       .  S
O3587      C3597   1.275       .  A
O3587     Al3589   1.977       .  S
O3588      C3601   1.258       .  A
O3588     Al3598   1.906       .  S
Al3589     O3602   1.878       .  S
Al3589     O3599   1.869       .  S
Al3589     O3594   1.767       .  S
O3590      C3597   1.260       .  A
O3590     Al3598   1.884       .  S
O3591      C3600   1.252       .  A
O3591     Al3598   1.846       .  S
O3592     Al3598   1.913       .  S
O3593      C3600   1.273       .  A
O3594     Al3598   1.774       .  S
O3595      C3596   1.269       .  A
C3596      C4117   1.523   1_554  S
C3597      C3925   1.496       .  S
C3600      C3845   1.464       .  S
C3601      O3602   1.260       .  A
C3601      C3957   1.447       .  S
O3603      C3618   1.259       .  A
O3603     Al3611   1.879       .  S
C3604      O3614   1.269       .  A
C3604      O3605   1.254       .  A
C3604      C3986   1.495       .  S
Al3607     O3615   1.835       .  S
Al3607     O3617   1.892       .  S
Al3607     O3616   1.780       .  S
C3608      C3858   1.499       .  S
O3609     Al3611   1.866       .  S
O3610      C3623   1.269       .  A
O3610     Al3620   1.947       .  S
Al3611     O3624   1.958       .  S
Al3611     O3616   1.769       .  S
O3612      C3619   1.271       .  A
O3613      C3622   1.269       .  A
O3613     Al3620   1.945       .  S
O3615      C3622   1.255       .  A
O3616     Al3620   1.782       .  S
O3617      C3618   1.255       .  A
C3618      C3909   1.437       .  S
C3619      C3829   1.459       .  S
C3622      C4133   1.463       .  S
C3623      O3624   1.268       .  A
C3623      C3810   1.536       .  S
O3625      C3640   1.260       .  A
O3625     Al3633   1.875       .  S
C3626      O3636   1.267       .  A
C3626      O3627   1.256       .  A
C3626      C3797   1.487       .  S
O3627     Al3629   1.899       .  S
O3628      C3630   1.262       .  A
O3628     Al3629   1.894       .  S
Al3629     O3637   1.840       .  S
Al3629     O3639   1.887       .  S
Al3629     O3638   1.783       .  S
C3630      O3643   1.275       .  A
C3630      C3778   1.507       .  S
O3631      C3641   1.266       .  A
O3631     Al3633   1.881       .  S
O3632      C3645   1.268       .  A
O3632     Al3642   1.940       .  S
Al3633     O3646   1.962       .  S
Al3633     O3643   1.982       .  S
Al3633     O3638   1.774       .  S
O3634      C3641   1.267       .  A
O3634     Al3642   1.913       .  S
O3635      C3644   1.266       .  A
O3635     Al3642   1.929       .  S
O3636     Al3642   1.929       .  S
O3637      C3644   1.252       .  A
O3638     Al3642   1.783       .  S
O3639      C3640   1.254       .  A
C3640      C3765   1.438       .  S
C3641      C4210   1.479       .  S
C3644      C3826   1.461       .  S
C3645      O3646   1.268       .  A
C3645      C4386   1.533       .  S
O3647      C3662   1.257       .  A
O3647     Al3655   1.860       .  S
C3648      O3658   1.268       .  A
C3648      O3649   1.259       .  A
C3648      C3730   1.490       .  S
O3649     Al3651   1.906       .  S
O3650      C3652   1.260       .  A
O3650     Al3651   1.886       .  S
Al3651     O3659   1.841       .  S
Al3651     O3661   1.900       .  S
Al3651     O3660   1.781       .  S
C3652      O3665   1.273       .  A
C3652      C3749   1.490       .  S
O3653      C3663   1.262       .  A
O3653     Al3655   1.870       .  S
O3654      C3667   1.272       .  A
O3654     Al3664   1.948       .  S
Al3655     O3668   1.957       .  S
Al3655     O3665   1.972       .  S
Al3655     O3660   1.767       .  S
O3656      C3663   1.266       .  A
O3656     Al3664   1.918       .  S
O3657      C3666   1.269       .  A
O3657     Al3664   1.947       .  S
O3658     Al3664   1.936       .  S
O3659      C3666   1.252       .  A
O3660     Al3664   1.782       .  S
O3661      C3662   1.255       .  A
C3662      C3762   1.439       .  S
C3663      C4261   1.475       .  S
C3666      C3890   1.467       .  S
C3667      O3668   1.268       .  A
C3667      C4309   1.532       .  S
O3669      C3684   1.268       .  A
O3669     Al3677   1.959       .  S
C3670      O3680   1.260       .  A
C3670      O3671   1.269       .  A
C3670      C3781   1.509       .  S
O3671     Al3673   1.945       .  S
O3672      C3674   1.268       .  A
O3672     Al3673   1.912       .  S
Al3673     O3681   1.940       .  S
Al3673     O3683   1.947       .  S
Al3673     O3682   1.783       .  S
C3674      O3687   1.259       .  A
C3674      C3938   1.459       .  S
O3675      C3685   1.273       .  A
O3675     Al3677   1.962       .  S
O3676      C3689   1.256       .  A
O3676     Al3686   1.899       .  S
Al3677     O3690   1.892       .  S
Al3677     O3687   1.869       .  S
Al3677     O3682   1.772       .  S
O3678      C3685   1.264       .  A
O3678     Al3686   1.894       .  S
O3679      C3688   1.253       .  A
O3679     Al3686   1.850       .  S
O3680     Al3686   1.919       .  S
O3681      C3688   1.269       .  A
O3682     Al3686   1.778       .  S
O3683      C3684   1.271       .  A
C3684      C3813   1.536       .  S
C3685      C3733   1.499       .  S
C3688      C4325   1.454       .  S
C3689      O3690   1.262       .  A
C3689      C3714   1.451       .  S
O3691      C3706   1.269       .  A
O3691     Al3699   1.952       .  S
C3692      O3702   1.259       .  A
C3692      O3693   1.273       .  A
C3692      C3746   1.492       .  S
O3694      C3696   1.265       .  A
Al3695     O3703   1.926       .  S
Al3695     O3705   1.912       .  S
Al3695     O3704   1.790       .  S
C3696      C3842   1.471       .  S
O3697     Al3699   1.949       .  S
O3698      C3711   1.257       .  A
O3698     Al3708   1.888       .  S
Al3699     O3712   1.883       .  S
Al3699     O3709   1.875       .  S
Al3699     O3704   1.793       .  S
O3700     Al3708   1.853   1_545  S
O3701      C3710   1.248       .  A
O3701     Al3708   1.847       .  S
O3703      C3710   1.260       .  A
O3704     Al3708   1.795       .  S
O3705      C3706   1.263       .  A
C3706      C3877   1.525       .  S
C3707      C3794   1.504       .  S
C3710      C4418   1.457       .  S
C3711      O3712   1.262       .  A
C3711      C3717   1.448       .  S
C3713      C3714   1.395       .  A
C3713      C3718   1.392       .  A
C3713      H3720   1.085       .  S
C3714      C3715   1.413       .  A
C3715      C3716   1.397       .  A
C3715      C3722   1.507       .  S
C3716      C3717   1.396       .  A
C3716      H3721   1.083       .  S
C3717      C3718   1.411       .  A
C3718      C3719   1.506       .  S
C3719      H3723   1.110       .  S
C3719      H3724   1.109       .  S
C3719      H3725   1.111       .  S
C3722      H3726   1.110       .  S
C3722      H3727   1.109       .  S
C3722      H3728   1.111       .  S
C3729      C3730   1.408       .  A
C3729      C3734   1.409       .  A
C3729      H3736   1.084       .  S
C3730      C3731   1.410       .  A
C3731      C3732   1.409       .  A
C3731      C3738   1.507       .  S
C3732      C3733   1.412       .  A
C3732      H3737   1.084       .  S
C3733      C3734   1.417       .  A
C3734      C3735   1.508       .  S
C3735      H3739   1.111       .  S
C3735      H3740   1.110       .  S
C3735      H3741   1.109       .  S
C3738      H3742   1.111       .  S
C3738      H3743   1.110       .  S
C3738      H3744   1.111       .  S
C3745      C3746   1.411       .  A
C3745      C3750   1.412       .  A
C3745      H3752   1.084       .  S
C3746      C3747   1.411       .  A
C3747      C3748   1.409       .  A
C3747      C3754   1.506       .  S
C3748      C3749   1.409       .  A
C3748      H3753   1.084       .  S
C3749      C3750   1.410       .  A
C3750      C3751   1.505       .  S
C3751      H3755   1.111       .  S
C3751      H3756   1.110       .  S
C3751      H3757   1.111       .  S
C3754      H3758   1.110       .  S
C3754      H3759   1.111       .  S
C3754      H3760   1.111       .  S
C3761      C3762   1.397       .  A
C3761      H3768   1.086       .  S
C3762      C3763   1.407       .  A
C3763      C3764   1.392       .  A
C3763      C3770   1.507       .  S
C3764      H3769   1.085       .  S
C3765      C3766   1.407       .  A
C3766      C3767   1.508       .  S
C3767      H3771   1.111       .  S
C3767      H3772   1.110       .  S
C3767      H3773   1.110       .  S
C3770      H3774   1.110       .  S
C3770      H3775   1.110       .  S
C3770      H3776   1.111       .  S
C3777      C3778   1.412       .  A
C3777      C3782   1.414       .  A
C3777      H3784   1.084       .  S
C3778      C3779   1.414       .  A
C3779      C3780   1.416       .  A
C3779      C3786   1.506       .  S
C3780      C3781   1.415       .  A
C3780      H3785   1.084       .  S
C3781      C3782   1.415       .  A
C3782      C3783   1.506       .  S
C3783      H3787   1.111       .  S
C3783      H3788   1.110       .  S
C3783      H3789   1.110       .  S
C3786      H3790   1.110       .  S
C3786      H3791   1.110       .  S
C3786      H3792   1.109       .  S
C3793      C3794   1.419       .  A
C3793      C3798   1.403       .  A
C3793      H3800   1.083       .  S
C3794      C3795   1.414       .  A
C3795      C3796   1.414       .  A
C3796      C3797   1.412       .  A
C3796      H3801   1.083       .  S
C3797      C3798   1.405       .  A
C3798      C3799   1.508       .  S
C3799      H3803   1.111       .  S
C3799      H3804   1.111       .  S
C3799      H3805   1.110       .  S
C3802      H3806   1.110   1_565  S
C3802      H3807   1.110       .  S
C3802      H3808   1.111       .  S
C3809      C3810   1.413       .  A
C3809      C3814   1.425       .  A
C3809      H3816   1.083       .  S
C3810      C3811   1.428       .  A
C3811      C3812   1.423       .  A
C3811      C3818   1.507       .  S
C3812      C3813   1.411       .  A
C3812      H3817   1.083       .  S
C3813      C3814   1.429       .  A
C3814      C3815   1.508       .  S
C3815      H3819   1.111       .  S
C3815      H3820   1.110       .  S
C3815      H3821   1.110       .  S
C3818      H3822   1.110       .  S
C3818      H3823   1.111       .  S
C3818      H3824   1.111       .  S
C3825      C3826   1.406       .  A
C3825      C3830   1.396       .  A
C3825      H3832   1.085       .  S
C3826      C3827   1.409       .  A
C3828      H3833   1.085       .  S
C3829      C3830   1.408       .  A
C3830      C3831   1.508       .  S
C3831      H3835   1.111   1_655  S
C3831      H3836   1.110       .  S
C3831      H3837   1.108   1_655  S
C3834      H3838   1.106       .  S
C3834      H3839   1.110       .  S
C3834      H3840   1.111       .  S
C3841      C3842   1.401       .  A
C3841      C3846   1.401       .  A
C3841      H3848   1.085       .  S
C3843      C3850   1.505       .  S
C3844      C3845   1.399       .  A
C3845      C3846   1.415       .  A
C3846      C3847   1.508       .  S
C3847      H3851   1.110       .  S
C3847      H3852   1.111       .  S
C3847      H3853   1.110       .  S
C3850      H3854   1.110       .  S
C3850      H3855   1.106       .  S
C3850      H3856   1.110       .  S
C3857      C3858   1.413       .  A
C3857      C3862   1.410       .  A
C3857      H3864   1.084       .  S
C3858      C3859   1.416       .  A
C3859      C3860   1.409       .  A
C3860      C3861   1.407       .  A
C3860      H3865   1.084       .  S
C3861      C3862   1.410       .  A
C3862      C3863   1.507       .  S
C3863      H3867   1.111       .  S
C3863      H3868   1.110       .  S
C3863      H3869   1.111       .  S
C3866      H3870   1.110       .  S
C3866      H3872   1.110       .  S
C3873      C3874   1.414       .  A
C3873      C3878   1.425       .  A
C3873      H3880   1.084       .  S
C3874      C3875   1.421       .  A
C3875      C3876   1.412       .  A
C3875      C3882   1.509       .  S
C3876      C3877   1.412       .  A
C3876      H3881   1.083       .  S
C3877      C3878   1.424       .  A
C3878      C3879   1.506       .  S
C3879      H3883   1.111       .  S
C3879      H3884   1.110       .  S
C3879      H3885   1.110       .  S
C3882      H3886   1.109       .  S
C3882      H3887   1.110       .  S
C3882      H3888   1.111       .  S
C3889      C3890   1.407       .  A
C3889      C3894   1.397       .  A
C3889      H3896   1.085       .  S
C3890      C3891   1.410       .  A
C3891      C3892   1.401       .  A
C3891      C3898   1.507       .  S
C3892      C3893   1.405       .  A
C3892      H3897   1.085       .  S
C3893      C3894   1.408       .  A
C3894      C3895   1.503       .  S
C3895      H3899   1.111       .  S
C3895      H3900   1.111       .  S
C3895      H3901   1.105       .  S
C3898      H3902   1.107       .  S
C3898      H3903   1.110       .  S
C3898      H3904   1.111       .  S
C3905      C3906   1.403       .  A
C3906      C3907   1.407       .  A
C3907      C3908   1.388       .  A
C3907      C3914   1.505       .  S
C3908      H3913   1.086       .  S
C3909      C3910   1.403       .  A
C3910      C3911   1.506       .  S
C3911      H3915   1.111       .  S
C3911      H3916   1.109       .  S
C3911      H3917   1.110       .  S
C3914      H3918   1.102       .  S
C3914      H3919   1.109       .  S
C3914      H3920   1.111       .  S
C3921      C3922   1.414       .  A
C3921      C3926   1.411       .  A
C3921      H3928   1.083       .  S
C3922      C3923   1.413       .  A
C3923      C3924   1.409       .  A
C3923      C3930   1.507       .  S
C3924      C3925   1.411       .  A
C3924      H3929   1.083       .  S
C3925      C3926   1.412       .  A
C3926      C3927   1.507       .  S
C3927      H3931   1.110       .  S
C3927      H3932   1.111       .  S
C3927      H3933   1.109       .  S
C3930      H3934   1.110       .  S
C3930      H3935   1.110       .  S
C3930      H3936   1.111       .  S
C3937      C3938   1.404       .  A
C3937      C3942   1.397       .  A
C3937      H3944   1.085       .  S
C3938      C3939   1.406       .  A
C3939      C3940   1.396       .  A
C3939      C3946   1.508       .  S
C3940      C3941   1.409       .  A
C3940      H3945   1.085       .  S
C3941      C3942   1.409       .  A
C3942      C3943   1.507       .  S
C3943      H3947   1.111       .  S
C3943      H3948   1.110       .  S
C3943      H3949   1.110       .  S
C3946      H3950   1.109       .  S
C3946      H3951   1.111       .  S
C3946      H3952   1.111       .  S
C3953      C3954   1.398       .  A
C3953      C3958   1.394       .  A
C3953      H3960   1.085       .  S
C3954      C3955   1.410       .  A
C3955      C3956   1.394       .  A
C3955      C3962   1.506       .  S
C3956      C3957   1.396       .  A
C3956      H3961   1.085       .  S
C3957      C3958   1.410       .  A
C3958      C3959   1.507       .  S
C3959      H3963   1.111       .  S
C3959      H3964   1.110       .  S
C3959      H3965   1.109       .  S
C3962      H3966   1.109       .  S
C3962      H3967   1.108       .  S
C3962      H3968   1.111       .  S
C3969      C3970   1.409       .  A
C3969      C3974   1.411       .  A
C3969      H3976   1.084   1_655  S
C3970      C3971   1.416       .  A
C3971      C3972   1.411       .  A
C3971      C3978   1.505       .  S
C3972      C3973   1.410       .  A
C3972      H3977   1.084       .  S
C3973      C3974   1.415       .  A
C3974      C3975   1.507       .  S
C3975      H3979   1.111       .  S
C3975      H3980   1.110       .  S
C3975      H3981   1.111       .  S
C3978      H3984   1.111       .  S
C3985      C3986   1.399       .  A
C3985      C3990   1.405       .  A
C3985      H3992   1.084       .  S
C3986      C3987   1.427       .  A
C3987      C3988   1.410       .  A
C3987      C3994   1.510       .  S
C3988      C3989   1.400       .  A
C3988      H3993   1.084       .  S
C3989      C3990   1.425       .  A
C3990      C3991   1.508       .  S
C3991      H3995   1.111       .  S
C3991      H3996   1.107       .  S
C3991      H3997   1.109       .  S
C3994      H3998   1.106       .  S
C3994      H3999   1.110       .  S
C3994      H4000   1.111       .  S
C4001      C4002   1.397       .  A
C4001      C4006   1.400       .  A
C4001      H4008   1.085       .  S
C4002      C4003   1.405       .  A
C4003      C4004   1.397       .  A
C4003      C4010   1.507       .  S
C4004      C4005   1.409       .  A
C4004      H4009   1.084       .  S
C4005      C4006   1.423       .  A
C4006      C4007   1.509       .  S
C4007      H4011   1.111       .  S
C4007      H4012   1.110       .  S
C4007      H4013   1.109       .  S
C4010      H4014   1.108       .  S
C4010      H4015   1.110       .  S
C4010      H4016   1.111       .  S
C4017      C4018   1.401       .  A
C4017      C4022   1.403       .  A
C4017      H4024   1.085       .  S
C4018      C4019   1.408       .  A
C4019      C4020   1.401       .  A
C4019      C4026   1.508       .  S
C4020      C4021   1.407       .  A
C4020      H4025   1.084       .  S
C4021      C4022   1.419       .  A
C4022      C4023   1.509       .  S
C4023      H4027   1.111       .  S
C4023      H4028   1.109       .  S
C4023      H4029   1.110       .  S
C4026      H4030   1.110       .  S
C4026      H4031   1.110       .  S
C4026      H4032   1.111       .  S
C4033      C4038   1.396       .  A
C4033      H4040   1.085       .  S
C4034      C4035   1.404   1_455  A
C4035      C4042   1.504       .  S
C4036      C4037   1.401       .  A
C4037      C4038   1.408       .  A
C4038      C4039   1.507       .  S
C4039      H4043   1.111       .  S
C4039      H4044   1.109       .  S
C4039      H4045   1.110       .  S
C4042      H4046   1.110       .  S
C4042      H4047   1.110       .  S
C4042      H4048   1.111       .  S
C4049      C4050   1.413       .  A
C4049      C4054   1.422   1_556  A
C4049      H4056   1.083       .  S
C4050      C4051   1.425       .  A
C4051      C4052   1.418       .  A
C4051      C4058   1.508       .  S
C4052      C4053   1.411   1_556  A
C4052      H4057   1.083       .  S
C4053      C4054   1.424       .  A
C4054      C4055   1.507       .  S
C4055      H4059   1.111       .  S
C4055      H4060   1.110       .  S
C4055      H4061   1.111       .  S
C4058      H4062   1.110       .  S
C4058      H4063   1.110       .  S
C4058      H4064   1.111       .  S
C4065      C4066   1.404   1_554  A
C4065      C4070   1.394       .  A
C4065      H4072   1.084       .  S
C4066      C4067   1.427   1_556  A
C4067      C4068   1.402       .  A
C4067      C4074   1.509       .  S
C4068      C4069   1.396       .  A
C4068      H4073   1.085       .  S
C4069      C4070   1.408       .  A
C4070      C4071   1.501       .  S
C4071      H4075   1.110       .  S
C4071      H4076   1.110       .  S
C4071      H4077   1.107       .  S
C4074      H4078   1.107   1_554  S
C4074      H4079   1.110   1_554  S
C4074      H4080   1.111       .  S
C4081      C4082   1.400       .  A
C4081      C4086   1.410       .  A
C4081      H4088   1.084       .  S
C4082      C4083   1.420       .  A
C4083      C4084   1.409       .  A
C4083      C4090   1.504       .  S
C4084      C4085   1.404       .  A
C4084      H4089   1.084       .  S
C4085      C4086   1.426       .  A
C4086      C4087   1.508       .  S
C4087      H4091   1.111       .  S
C4087      H4092   1.110       .  S
C4090      H4094   1.105       .  S
C4090      H4095   1.109       .  S
C4090      H4096   1.111       .  S
C4097      C4098   1.397       .  A
C4097      C4102   1.411       .  A
C4097      H4104   1.085       .  S
C4098      C4099   1.421       .  A
C4099      C4100   1.415       .  A
C4099      C4106   1.506       .  S
C4100      C4101   1.404       .  A
C4100      H4105   1.085       .  S
C4101      C4102   1.429       .  A
C4102      C4103   1.508       .  S
C4103      H4107   1.108       .  S
C4103      H4108   1.111       .  S
C4103      H4109   1.110       .  S
C4106      H4110   1.110       .  S
C4106      H4111   1.107       .  S
C4106      H4112   1.111       .  S
C4113      H4120   1.084       .  S
C4114      C4115   1.422       .  A
C4115      C4116   1.420       .  A
C4115      C4122   1.507       .  S
C4116      C4117   1.412       .  A
C4116      H4121   1.084       .  S
C4117      C4118   1.422   1_556  A
C4119      H4123   1.111       .  S
C4119      H4125   1.111   1_565  S
C4122      H4126   1.111       .  S
C4122      H4127   1.109       .  S
C4122      H4128   1.111       .  S
C4129      C4130   1.408   1_554  A
C4129      C4134   1.401       .  A
C4129      H4136   1.084       .  S
C4130      C4131   1.413   1_556  A
C4131      C4132   1.397       .  A
C4131      C4138   1.509   1_554  S
C4132      C4133   1.405       .  A
C4132      H4137   1.084       .  S
C4133      C4134   1.407       .  A
C4134      C4135   1.508   1_565  S
C4135      H4139   1.111       .  S
C4135      H4140   1.108       .  S
C4135      H4141   1.110   1_545  S
C4138      H4142   1.110       .  S
C4138      H4143   1.109       .  S
C4138      H4144   1.111   1_556  S
C4145      C4146   1.400       .  A
C4145      C4150   1.393       .  A
C4145      H4152   1.085       .  S
C4146      C4147   1.408       .  A
C4147      C4148   1.392       .  A
C4147      C4154   1.507       .  S
C4148      C4149   1.397       .  A
C4148      H4153   1.083       .  S
C4149      C4150   1.407       .  A
C4150      C4151   1.508       .  S
C4151      H4155   1.111       .  S
C4151      H4156   1.110       .  S
C4151      H4157   1.110       .  S
C4154      H4158   1.108       .  S
C4154      H4159   1.110       .  S
C4154      H4160   1.111       .  S
C4161      C4166   1.411       .  A
C4161      H4168   1.081       .  S
C4162      C4163   1.414       .  A
C4163      C4164   1.408       .  A
C4163      C4170   1.507       .  S
C4165      C4166   1.413       .  A
C4166      C4167   1.506       .  S
C4167      H4171   1.111       .  S
C4167      H4172   1.110       .  S
C4167      H4173   1.107       .  S
C4170      H4174   1.109       .  S
C4170      H4175   1.111       .  S
C4170      H4176   1.111       .  S
C4177      C4178   1.413       .  A
C4177      C4182   1.412       .  A
C4177      H4184   1.083       .  S
C4178      C4179   1.416       .  A
C4179      C4180   1.413       .  A
C4179      C4186   1.507       .  S
C4180      C4181   1.411       .  A
C4180      H4185   1.084       .  S
C4181      C4182   1.413       .  A
C4182      C4183   1.506       .  S
C4183      H4187   1.110       .  S
C4183      H4188   1.110       .  S
C4183      H4189   1.110       .  S
C4186      H4190   1.110       .  S
C4186      H4191   1.111       .  S
C4186      H4192   1.111       .  S
C4193      C4194   1.412       .  A
C4193      C4198   1.420       .  A
C4193      H4200   1.084       .  S
C4194      C4195   1.422       .  A
C4195      C4196   1.421       .  A
C4195      C4202   1.507       .  S
C4196      C4197   1.412       .  A
C4196      H4201   1.084       .  S
C4197      C4198   1.422       .  A
C4198      C4199   1.507       .  S
C4199      H4203   1.111       .  S
C4199      H4204   1.111       .  S
C4199      H4205   1.109       .  S
C4202      H4206   1.109       .  S
C4202      H4207   1.111       .  S
C4202      H4208   1.111       .  S
C4209      C4210   1.405       .  A
C4209      C4214   1.398       .  A
C4209      H4216   1.084       .  S
C4210      C4211   1.425       .  A
C4211      C4212   1.399       .  A
C4211      C4218   1.509       .  S
C4212      C4213   1.393       .  A
C4212      H4217   1.083       .  S
C4213      C4214   1.408       .  A
C4214      C4215   1.508       .  S
C4215      H4219   1.111       .  S
C4215      H4220   1.110       .  S
C4215      H4221   1.109       .  S
C4218      H4222   1.105       .  S
C4218      H4223   1.110       .  S
C4218      H4224   1.111       .  S
C4225      C4226   1.403       .  A
C4225      H4232   1.085       .  S
C4226      C4227   1.409       .  A
C4227      C4228   1.403       .  A
C4227      C4234   1.507       .  S
C4228      C4229   1.408       .  A
C4228      H4233   1.084       .  S
C4230      C4231   1.504       .  S
C4231      H4235   1.111       .  S
C4231      H4236   1.107       .  S
C4231      H4237   1.110       .  S
C4234      H4238   1.111       .  S
C4234      H4239   1.110       .  S
C4234      H4240   1.111       .  S
C4241      C4242   1.413       .  A
C4241      C4246   1.424       .  A
C4241      H4248   1.084       .  S
C4242      C4243   1.425       .  A
C4243      C4244   1.420       .  A
C4243      C4250   1.508       .  S
C4244      C4245   1.413       .  A
C4244      H4249   1.084       .  S
C4245      C4246   1.425       .  A
C4246      C4247   1.506       .  S
C4247      H4251   1.111       .  S
C4247      H4252   1.110       .  S
C4247      H4253   1.110       .  S
C4250      H4254   1.110       .  S
C4250      H4255   1.111       .  S
C4250      H4256   1.111       .  S
C4257      C4258   1.395       .  A
C4257      C4262   1.398       .  A
C4257      H4264   1.085       .  S
C4258      C4259   1.409       .  A
C4259      C4260   1.393       .  A
C4259      C4266   1.507       .  S
C4260      C4261   1.404       .  A
C4260      H4265   1.085       .  S
C4261      C4262   1.424       .  A
C4262      C4263   1.508       .  S
C4263      H4267   1.111       .  S
C4263      H4268   1.104       .  S
C4263      H4269   1.109       .  S
C4266      H4270   1.110       .  S
C4266      H4271   1.111       .  S
C4266      H4272   1.110       .  S
C4273      C4274   1.391       .  A
C4273      C4278   1.395       .  A
C4273      H4280   1.083       .  S
C4274      C4275   1.413       .  A
C4275      C4276   1.395       .  A
C4275      C4282   1.504       .  S
C4276      C4277   1.400       .  A
C4276      H4281   1.085       .  S
C4277      C4278   1.417       .  A
C4278      C4279   1.501       .  S
C4279      H4283   1.111       .  S
C4279      H4284   1.103       .  S
C4279      H4285   1.109       .  S
C4282      H4286   1.110       .  S
C4282      H4287   1.111       .  S
C4282      H4288   1.110       .  S
C4289      C4290   1.394       .  A
C4289      C4294   1.392       .  A
C4289      H4296   1.085       .  S
C4290      C4291   1.411       .  A
C4291      C4292   1.393       .  A
C4291      C4298   1.505       .  S
C4292      C4293   1.396       .  A
C4292      H4297   1.085       .  S
C4293      C4294   1.411       .  A
C4294      C4295   1.505       .  S
C4295      H4299   1.111       .  S
C4295      H4300   1.107       .  S
C4295      H4301   1.108       .  S
C4298      H4302   1.107       .  S
C4298      H4303   1.110       .  S
C4298      H4304   1.111       .  S
C4305      C4306   1.408   1_455  A
C4305      H4312   1.083   1_455  S
C4307      C4308   1.421       .  A
C4307      C4314   1.508       .  S
C4308      C4309   1.410       .  A
C4308      H4313   1.084       .  S
C4309      C4310   1.428       .  A
C4310      C4311   1.507       .  S
C4311      H4315   1.111       .  S
C4311      H4316   1.110       .  S
C4311      H4317   1.111       .  S
C4314      H4318   1.111       .  S
C4314      H4320   1.111       .  S
C4321      C4322   1.406       .  A
C4321      C4326   1.396       .  A
C4321      H4328   1.084       .  S
C4322      C4323   1.422       .  A
C4323      C4324   1.399       .  A
C4323      C4330   1.509       .  S
C4324      C4325   1.397       .  A
C4324      H4329   1.085       .  S
C4325      C4326   1.409       .  A
C4326      C4327   1.507       .  S
C4327      H4331   1.110       .  S
C4327      H4332   1.111       .  S
C4327      H4333   1.110       .  S
C4330      H4334   1.110       .  S
C4330      H4335   1.107       .  S
C4330      H4336   1.111       .  S
C4337      C4338   1.406       .  A
C4337      C4342   1.401       .  A
C4337      H4344   1.085       .  S
C4338      C4339   1.409       .  A
C4339      C4340   1.399       .  A
C4339      C4346   1.507       .  S
C4340      C4341   1.407       .  A
C4340      H4345   1.085       .  S
C4341      C4342   1.412       .  A
C4342      C4343   1.507       .  S
C4343      H4347   1.111   1_655  S
C4343      H4348   1.110   1_655  S
C4343      H4349   1.110       .  S
C4346      H4350   1.110       .  S
C4346      H4351   1.107       .  S
C4346      H4352   1.111       .  S
C4353      C4354   1.410       .  A
C4353      C4358   1.406       .  A
C4353      H4360   1.083       .  S
C4354      C4355   1.413       .  A
C4355      C4356   1.407       .  A
C4355      C4362   1.507       .  S
C4356      C4357   1.409       .  A
C4356      H4361   1.084       .  S
C4357      C4358   1.412       .  A
C4358      C4359   1.508       .  S
C4359      H4363   1.111       .  S
C4359      H4364   1.109       .  S
C4359      H4365   1.111       .  S
C4362      H4366   1.110       .  S
C4362      H4367   1.111       .  S
C4362      H4368   1.111       .  S
C4369      C4370   1.405       .  A
C4369      C4374   1.411       .  A
C4369      H4376   1.084       .  S
C4370      C4371   1.427       .  A
C4371      C4372   1.411       .  A
C4371      C4378   1.508       .  S
C4372      C4373   1.401       .  A
C4372      H4377   1.084       .  S
C4373      C4374   1.422       .  A
C4374      C4375   1.508       .  S
C4375      H4379   1.111       .  S
C4375      H4380   1.109       .  S
C4375      H4381   1.110       .  S
C4378      H4384   1.111       .  S
C4385      C4390   1.423       .  A
C4385      H4392   1.083       .  S
C4386      C4387   1.428   1_655  A
C4387      C4394   1.507       .  S
C4388      C4389   1.411       .  A
C4388      H4393   1.083       .  S
C4389      C4390   1.430       .  A
C4391      H4395   1.111       .  S
C4391      H4396   1.109       .  S
C4394      H4398   1.110   1_455  S
C4394      H4399   1.111       .  S
C4394      H4400   1.111       .  S
C4401      C4402   1.404       .  A
C4401      C4406   1.402       .  A
C4401      H4408   1.085       .  S
C4402      C4403   1.402       .  A
C4403      C4404   1.395       .  A
C4403      C4410   1.508       .  S
C4404      C4405   1.412       .  A
C4405      C4406   1.412       .  A
C4406      C4407   1.508       .  S
C4407      H4411   1.111       .  S
C4407      H4412   1.110       .  S
C4407      H4413   1.109       .  S
C4410      H4414   1.110       .  S
C4417      C4418   1.399       .  A
C4417      C4422   1.400       .  A
C4417      H4424   1.086   1_565  S
C4418      C4419   1.409       .  A
C4419      C4420   1.402       .  A
C4419      C4426   1.505       .  S
C4420      C4421   1.408       .  A
C4420      H4425   1.084       .  S
C4421      C4422   1.424       .  A
C4423      H4427   1.111       .  S
C4423      H4428   1.110       .  S
C4426      H4430   1.110       .  S
C4426      H4431   1.109       .  S
C4426      H4432   1.110       .  S
C4433      C4434   1.396       .  A
C4433      H4440   1.085       .  S
C4434      C4435   1.409       .  A
C4435      C4436   1.393       .  A
C4435      C4442   1.507       .  S
C4436      H4441   1.085       .  S
C4437      C4438   1.409       .  A
C4438      C4439   1.506       .  S
C4439      H4443   1.111       .  S
C4439      H4444   1.109       .  S
C4439      H4445   1.106       .  S
C4442      H4446   1.110       .  S
C4442      H4447   1.109       .  S
C4442      H4448   1.111       .  S
C4449      C4454   1.410       .  A
C4450      C4451   1.423   1_565  A
C4451      C4458   1.509       .  S
C4452      C4453   1.401       .  A
C4452      H4457   1.084       .  S
C4453      C4454   1.424       .  A
C4454      C4455   1.509       .  S
C4455      H4459   1.111       .  S
C4455      H4460   1.110       .  S
C4455      H4461   1.107       .  S
C4458      H4462   1.109   1_545  S
C4458      H4463   1.106       .  S
C4458      H4464   1.111       .  S
C4465      C4466   1.414       .  A
C4465      C4470   1.412       .  A
C4465      H4472   1.084       .  S
C4466      C4467   1.412       .  A
C4467      C4468   1.411       .  A
C4467      C4474   1.506       .  S
C4468      C4469   1.415       .  A
C4468      H4473   1.084       .  S
C4469      C4470   1.411       .  A
C4470      C4471   1.506       .  S
C4471      H4475   1.111       .  S
C4471      H4476   1.110       .  S
C4471      H4477   1.110       .  S
C4474      H4478   1.111       .  S
C4474      H4479   1.109       .  S
C4474      H4480   1.111       .  S
