geometry optimzed in LAMMPS
_audit_creation_date              2020-12-01 
_audit_creation_method            'lammps2cif' 
_symmetry_space_group_name_H-M    'P1' 
_symmetry_Int_Tables_number       1 
_symmetry_cell_setting            triclinic 
loop_ 
_symmetry_equiv_pos_as_xyz 
  x,y,z 
_cell_length_a                    36.42279849 
_cell_length_b                    36.334871533923796 
_cell_length_c                    45.65912827228623 
_cell_angle_alpha                 90.59754059754829 
_cell_angle_beta                  89.91906808920285 
_cell_angle_gamma                 89.82883052584792 
loop_ 
_atom_site_label 
_atom_site_type_symbol 
_atom_site_fract_x 
_atom_site_fract_y 
_atom_site_fract_z 
_atom_site_charge 
Fe1        Fe  0.94325179  0.10115246  0.05806868     1.65800
Fe2        Fe  0.85653496  0.11890050  0.08075336     1.73200
Fe3        Fe  0.87431415  0.04153318  0.04137315     1.54400
O4          O  0.89112331  0.06824801  0.50152919    -0.81600
O5          O  0.82843126  0.07330870  0.09717777    -0.79900
O6          O  0.94481142  0.09506843  0.51301181    -0.84100
O7          O  0.95693707  0.04946785  0.06976529    -0.79000
O8          O  0.82142305  0.06183672  0.03394575    -0.80800
O9          O  0.88861143  0.11851328  0.11759844    -0.83500
C10         C  0.95725847  0.02594423  0.04956262     0.97300
C11         C  0.92062020  0.08463068  0.49440027     1.04700
O12         O  0.89145742  0.08759477  0.06005590    -1.12500
O13         O  0.87908697  0.16817351  0.06593500    -0.74900
O14         O  0.93354437  0.15405553  0.04684055    -0.78400
O15         O  0.92643535  0.01400950  0.04040722    -0.79100
C16         C  0.90790209  0.17671156  0.05180344     0.96200
O17         O  0.94675573  0.11471126  0.10200543    -0.77100
O18         O  0.82213347  0.12122626  0.04539104    -0.82300
C19         C  0.83118799  0.03822374  0.09736216     0.98800
C20         C  0.80746985  0.09396438  0.03262959     1.04700
O21         O  0.85484530  0.02074184  0.08147365    -0.77900
C22         C  0.92296823  0.11767538  0.12225667     1.03000
Fe23       Fe  0.59340619  0.07450046  0.21322122     1.65800
Fe24       Fe  0.67678866  0.10227776  0.18994174     1.73200
Fe25       Fe  0.67059290  0.02621971  0.23147008     1.54400
O26         O  0.65179509  0.04706961  0.27025804    -0.81600
O27         O  0.71168440  0.06064164  0.17520544    -0.79900
O28         O  0.59518941  0.06729786  0.25872289    -0.84100
O29         O  0.58892323  0.02056559  0.20357507    -0.79000
O30         O  0.71967385  0.05454131  0.23826740    -0.80800
O31         O  0.64549599  0.09421010  0.15304835    -0.83500
C32         C  0.59093370  0.00003191  0.22523388     0.97300
C33         C  0.62047059  0.06004157  0.27727020     1.04700
O34         O  0.64673424  0.06814931  0.21162856    -1.12500
O35         O  0.64665452  0.14827071  0.20242465    -0.74900
O36         O  0.59400441  0.12934119  0.22183599    -0.78400
O37         O  0.62308162  0.99143114  0.23375769    -0.79100
C38         C  0.61644334  0.15439556  0.21551643     0.96200
O39         O  0.58840949  0.08339838  0.16893508    -0.77100
O40         O  0.70987672  0.11238159  0.22557657    -0.82300
C41         C  0.71424331  0.02564743  0.17555095     0.98800
C42         C  0.72826592  0.08848012  0.23927778     1.04700
O43         O  0.69370751  0.00570334  0.19198859    -0.77900
C44         C  0.61153433  0.08847247  0.14855379     1.03000
Fe45       Fe  0.09809293  0.94228779  0.46647438     1.65800
Fe46       Fe  0.17996892  0.91531237  0.43968402     1.73200
Fe47       Fe  0.17132433  0.99306340  0.98301661     1.54400
O48         O  0.12235244  0.02590695  0.98506583    -0.81600
O49         O  0.21394138  0.90469783  0.47385528    -0.79900
O50         O  0.09344727  0.99618033  0.45754397    -0.84100
O51         O  0.09880441  0.94918245  0.01119697    -0.79000
O52         O  0.19627708  0.01208223  0.44532155    -0.80800
O53         O  0.15138159  0.86814216  0.45221750    -0.83500
C54         C  0.12341016  0.95870258  0.02967280     0.97300
C55         C  0.09509092  0.01662822  0.47961622     1.04700
O56         O  0.15097693  0.94875322  0.46373273    -1.12500
O57         O  0.14705735  0.92395633  0.40394404    -0.74900
O58         O  0.09085471  0.93339569  0.42235999    -0.78400
O59         O  0.15379325  0.97352354  0.02264562    -0.79100
C60         C  0.11282870  0.92933375  0.40104690     0.96200
O61         O  0.10031474  0.88755741  0.47438620    -0.77100
O62         O  0.21316277  0.95806841  0.42494929    -0.82300
C63         C  0.23126935  0.93378862  0.99107957     0.98800
C64         C  0.21516145  0.99313210  0.42659228     1.04700
O65         O  0.22166066  0.96741194  0.99005749    -0.77900
C66         C  0.12232645  0.86221707  0.46692036     1.03000
Fe67       Fe  0.44388037  0.92217905  0.31307832     1.65800
Fe68       Fe  0.35439976  0.90967681  0.32924351     1.73200
Fe69       Fe  0.37958287  0.98716615  0.29496664     1.54400
O70         O  0.43263149  0.01166858  0.29721678    -0.81600
O71         O  0.32528007  0.91098257  0.29095380    -0.79900
O72         O  0.46126940  0.97303104  0.32454615    -0.84100
O73         O  0.44691843  0.93228238  0.26780907    -0.79000
O74         O  0.35817853  0.00804049  0.33502889    -0.80800
O75         O  0.37516649  0.85896307  0.31471668    -0.83500
C76         C  0.42521756  0.94662668  0.24889542     0.97300
C77         C  0.46263398  0.99622025  0.30450903     1.04700
O78         O  0.39301717  0.93947097  0.31266048    -1.12500
O79         O  0.38162397  0.90697327  0.36832564    -0.74900
O80         O  0.44172421  0.91069952  0.35773945    -0.78400
O81         O  0.39739929  0.96632604  0.25571858    -0.79100
C82         C  0.41516327  0.90764386  0.37583524     0.96200
O83         O  0.43286418  0.86901223  0.30190037    -0.77100
O84         O  0.32763441  0.95639408  0.34560158    -0.82300
C85         C  0.31233400  0.93941848  0.27892732     0.98800
C86         C  0.33228021  0.99109948  0.34852440     1.04700
O87         O  0.32607093  0.97103439  0.28379589    -0.77900
C88         C  0.40551780  0.84800952  0.30394828     1.03000
Fe89       Fe  0.43915926  0.92367618  0.06120290     1.65800
Fe90       Fe  0.41162346  0.84118615  0.08589283     1.73200
Fe91       Fe  0.48895681  0.84633583  0.04516352     1.54400
O92         O  0.46554729  0.87723239  0.50832118    -0.81600
O93         O  0.45336045  0.80709915  0.10171423    -0.79900
O94         O  0.41221709  0.90709227  0.51789964    -0.84100
O95         O  0.49266770  0.92939076  0.07113042    -0.79000
O96         O  0.46138744  0.79651644  0.03949327    -0.80800
O97         O  0.41824312  0.87416704  0.12222184    -0.83500
C98         C  0.51366048  0.92701392  0.04955131     0.97300
C99         C  0.43587756  0.89290804  0.50007960     1.04700
O100        O  0.44616347  0.87062339  0.06407848    -1.12500
O101        O  0.36545126  0.86976755  0.07195072    -0.74900
O102        O  0.38463095  0.92175247  0.05171532    -0.78400
O103        O  0.52296053  0.89462656  0.04148597    -0.79100
C104        C  0.35973554  0.89893437  0.05759706     0.96200
O105        O  0.42932121  0.93087066  0.10573445    -0.77100
O106        O  0.40312887  0.80731462  0.05041328    -0.82300
C107        C  0.48837091  0.80470083  0.10160272     0.98800
C108        C  0.42741608  0.78899437  0.03682001     1.04700
O109        O  0.50844491  0.82567234  0.08556115    -0.77900
C110        C  0.42438312  0.90825346  0.12648095     1.03000
Fe111      Fe  0.41230056  0.57438348  0.21347925     1.65800
Fe112      Fe  0.39993265  0.66275672  0.19338485     1.73200
Fe113      Fe  0.47644677  0.63978317  0.23083240     1.54400
O114        O  0.45512814  0.62418780  0.27027909    -0.81600
O115        O  0.44622827  0.68708781  0.17555853    -0.79900
O116        O  0.42177027  0.57394380  0.25858554    -0.84100
O117        O  0.46313945  0.55651186  0.20288319    -0.79000
O118        O  0.46021952  0.69404872  0.24041721    -0.80800
O119        O  0.39662016  0.63127181  0.15606081    -0.83500
C120        C  0.48631033  0.55580716  0.22299742     0.97300
C121        C  0.43557368  0.59653851  0.27720775     1.04700
O122        O  0.42930108  0.62543992  0.21250650    -1.12500
O123        O  0.34997059  0.64441238  0.20925374    -0.74900
O124        O  0.35892688  0.58682723  0.22338264    -0.78400
O125        O  0.50086934  0.58624281  0.23067226    -0.79100
C126        C  0.33872856  0.61490409  0.22071359     0.96200
O127        O  0.40202714  0.57241805  0.16916781    -0.77100
O128        O  0.40119321  0.69631790  0.22952220    -0.82300
C129        C  0.48084601  0.68219879  0.17418140     0.98800
C130        C  0.42875090  0.70901091  0.24300330     1.04700
O131        O  0.49774861  0.65881322  0.19044369    -0.77900
C132        C  0.39842734  0.59712469  0.14991961     1.03000
Fe133      Fe  0.59999184  0.07657989  0.46392786     1.65800
Fe134      Fe  0.61371904  0.16400338  0.44173937     1.73200
Fe135      Fe  0.53406018  0.14075850  0.98138156     1.54400
O136        O  0.50690285  0.08855546  0.98068323    -0.81600
O137        O  0.61503154  0.19783432  0.47791159    -0.79900
O138        O  0.54786925  0.05987269  0.45675904    -0.84100
O139        O  0.58528597  0.07125819  0.00822019    -0.79000
O140        O  0.51564930  0.16318843  0.44124763    -0.80800
O141        O  0.66356326  0.14406076  0.45633933    -0.83500
C142        C  0.57289012  0.09429813  0.02715155     0.97300
C143        C  0.52605728  0.06190386  0.47797669     1.04700
O144        O  0.58411015  0.12810622  0.46195663    -1.12500
O145        O  0.61470044  0.13140352  0.40473258    -0.74900
O146        O  0.60807892  0.07295951  0.41919929    -0.78400
O147        O  0.55493225  0.12324829  0.02053103    -0.79100
C148        C  0.61210263  0.09705362  0.39940984     0.96200
O149        O  0.65431357  0.08686491  0.47114976    -0.77100
O150        O  0.56725510  0.18994350  0.42500283    -0.82300
C151        C  0.58486425  0.20739902  0.99368777     0.98800
C152        C  0.53245860  0.18593991  0.42440769     1.04700
O153        O  0.55292858  0.19371642  0.99136253    -0.77900
C154        C  0.67475720  0.11440927  0.46763434     1.03000
Fe155      Fe  0.57036357  0.42209691  0.30860314     1.65800
Fe156      Fe  0.59983588  0.33778965  0.32812288     1.73200
Fe157      Fe  0.52134110  0.34594892  0.28901516     1.54400
O158        O  0.48647563  0.39353564  0.28941730    -0.81600
O159        O  0.60745705  0.30650480  0.29094645    -0.79900
O160        O  0.51706504  0.42691783  0.31972203    -0.84100
O161        O  0.56094627  0.42225497  0.26314573    -0.79000
O162        O  0.50324276  0.32139179  0.32838445    -0.80800
O163        O  0.64551777  0.36821448  0.31471671    -0.83500
C164        C  0.55305564  0.39772704  0.24379701     0.97300
C165        C  0.49532345  0.42545660  0.29864748     1.04700
O166        O  0.56422937  0.36879156  0.30856952    -1.12500
O167        O  0.59412684  0.36736650  0.36684422    -0.74900
O168        O  0.58135696  0.42489465  0.35309909    -0.78400
O169        O  0.53998407  0.36626258  0.25002213    -0.79100
C170        C  0.58779951  0.40110685  0.37274426     0.96200
O171        O  0.62448598  0.42144631  0.29808146    -0.77100
O172        O  0.55892594  0.30205950  0.34279935    -0.82300
C173        C  0.58279240  0.28827241  0.27785974     0.98800
C174        C  0.52394018  0.29952316  0.34316501     1.04700
O175        O  0.54904330  0.29697840  0.28000188    -0.77900
C176        C  0.65032854  0.39889020  0.30206826     1.03000
Fe177      Fe  0.09642553  0.94716844  0.21610305     1.65800
Fe178      Fe  0.11547212  0.85964676  0.19548404     1.73200
Fe179      Fe  0.03783524  0.87787212  0.23307662     1.54400
O180        O  0.05836297  0.89489182  0.27211114    -0.81600
O181        O  0.07062724  0.82913634  0.18023265    -0.79900
O182        O  0.08623844  0.94815536  0.26145668    -0.84100
O183        O  0.04426002  0.95955443  0.20515933    -0.79000
O184        O  0.05884986  0.82581039  0.24126474    -0.80800
O185        O  0.11350785  0.88961119  0.15749745    -0.83500
C186        C  0.02162409  0.96005521  0.22575068     0.97300
C187        C  0.07470829  0.92432599  0.27979727     1.04700
O188        O  0.08368815  0.89516197  0.21487283    -1.12500
O189        O  0.16471185  0.88438563  0.20835472    -0.74900
O190        O  0.15039338  0.93953628  0.22614728    -0.78400
O191        O  0.00909012  0.92923010  0.23396209    -0.79100
C192        C  0.17368748  0.91452907  0.22074044     0.96200
O193        O  0.10753735  0.94846401  0.17169873    -0.77100
O194        O  0.11858478  0.82814809  0.23268472    -0.82300
C195        C  0.03570513  0.83189494  0.17873950     0.98800
C196        C  0.09119697  0.81355005  0.24510709     1.04700
O197        O  0.01772736  0.85677177  0.19307357    -0.77900
C198        C  0.11099423  0.92380279  0.15187385     1.03000
Fe199      Fe  0.07026809  0.59537203  0.05997206     1.65800
Fe200      Fe  0.10081074  0.67943105  0.07924921     1.73200
Fe201      Fe  0.02188809  0.67224245  0.04122253     1.54400
O202        O  0.03617073  0.65580535  0.50304820    -0.81600
O203        O  0.06011269  0.71464016  0.09548084    -0.79900
O204        O  0.05735082  0.59943983  0.51385509    -0.84100
O205        O  0.01677136  0.59297310  0.07047483    -0.79000
O206        O  0.04907107  0.72141445  0.03273917    -0.80800
O207        O  0.09682655  0.64989886  0.11745491    -0.83500
C208        C  0.99600613  0.59351759  0.04884815     0.97300
C209        C  0.04879764  0.62450208  0.49543135     1.04700
O210        O  0.06478081  0.64872432  0.06020294    -1.12500
O211        O  0.14552905  0.64871077  0.06492351    -0.74900
O212        O  0.12520431  0.59389923  0.05063346    -0.78400
O213        O  0.98674039  0.62509537  0.03981982    -0.79100
C214        C  0.15080695  0.61699784  0.05369367     0.96200
O215        O  0.07932250  0.59291090  0.10470978    -0.77100
O216        O  0.10746047  0.71014208  0.04200066    -0.82300
C217        C  0.02512875  0.71648712  0.09693794     0.98800
C218        C  0.08288885  0.72811079  0.02868272     1.04700
O219        O  0.00405543  0.69585378  0.08120009    -0.77900
C220        C  0.08843566  0.61693078  0.12381894     1.03000
Fe221      Fe  0.94112068  0.09978830  0.30787172     1.65800
Fe222      Fe  0.91361204  0.18431440  0.32897271     1.73200
Fe223      Fe  0.99270383  0.17508521  0.29089977     1.54400
O224        O  0.02624107  0.12642472  0.28990226    -0.81600
O225        O  0.90765423  0.21577521  0.29228559    -0.79900
O226        O  0.99408988  0.09457001  0.31962282    -0.84100
O227        O  0.95159324  0.10057159  0.26257459    -0.79000
O228        O  0.01092031  0.19804838  0.33110745    -0.80800
O229        O  0.86753370  0.15550206  0.31448201    -0.83500
C230        C  0.96035968  0.12546707  0.24415770     0.97300
C231        C  0.01610119  0.09495450  0.29867177     1.04700
O232        O  0.94869656  0.15284296  0.30920312    -1.12500
O233        O  0.91795217  0.15417282  0.36670275    -0.74900
O234        O  0.92938268  0.09628613  0.35208830    -0.78400
O235        O  0.97398673  0.15639485  0.25154990    -0.79100
C236        C  0.92356742  0.12032850  0.37201282     0.96200
O237        O  0.88684401  0.10149666  0.29700868    -0.77100
O238        O  0.95522174  0.21837052  0.34485604    -0.82300
C239        C  0.93271379  0.23331204  0.27924821     0.98800
C240        C  0.99022494  0.22038020  0.34577300     1.04700
O241        O  0.96640996  0.22514136  0.28269425    -0.77900
C242        C  0.86176934  0.12498231  0.30145790     1.03000
Fe243      Fe  0.91590094  0.44936722  0.46315591     1.65800
Fe244      Fe  0.89995883  0.36185897  0.44147075     1.73200
Fe245      Fe  0.97997830  0.37667217  0.97898603     1.54400
O246        O  0.00239027  0.43352803  0.48349002    -0.81600
O247        O  0.90068324  0.32831505  0.47722771    -0.79900
O248        O  0.96793946  0.46412936  0.45444123    -0.84100
O249        O  0.92971109  0.44396487  0.00954673    -0.79000
O250        O  0.99811514  0.36457164  0.43779636    -0.80800
O251        O  0.85111934  0.38229349  0.45793059    -0.83500
C252        C  0.93899302  0.41782706  0.02682517     0.97300
C253        C  0.98933211  0.46430313  0.47573335     1.04700
O254        O  0.93053049  0.39780621  0.46095293    -1.12500
O255        O  0.89646692  0.39358029  0.40482226    -0.74900
O256        O  0.90796675  0.45195742  0.41838524    -0.78400
O257        O  0.95653035  0.38909099  0.01859404    -0.79100
C258        C  0.90127898  0.42733958  0.39909444     0.96200
O259        O  0.86133084  0.44055908  0.47070113    -0.77100
O260        O  0.94603706  0.33679304  0.42292405    -0.82300
C261        C  0.92984449  0.31073293  0.98730634     0.98800
C262        C  0.98067069  0.34178341  0.42098511     1.04700
O263        O  0.96184401  0.32299473  0.98302426    -0.77900
C264        C  0.84053229  0.41299257  0.46832235     1.03000
Fe265      Fe  0.91783058  0.44459175  0.21274904     1.65800
Fe266      Fe  0.83319313  0.41883156  0.19130666     1.73200
Fe267      Fe  0.84375489  0.49724182  0.23095748     1.54400
O268        O  0.86004129  0.47522854  0.26969656    -0.81600
O269        O  0.80322473  0.46242028  0.17408485    -0.79900
O270        O  0.91607773  0.45209502  0.25871408    -0.84100
O271        O  0.92597619  0.49797944  0.20380293    -0.79000
O272        O  0.79189393  0.47424603  0.23729016    -0.80800
O273        O  0.86507411  0.41941088  0.15402582    -0.83500
C274        C  0.92501778  0.51879192  0.22565348     0.97300
C275        C  0.89023810  0.46003565  0.27691278     1.04700
O276        O  0.86512945  0.45317412  0.21150552    -1.12500
O277        O  0.85883521  0.37158990  0.20688012    -0.74900
O278        O  0.91437607  0.38965359  0.22067990    -0.78400
O279        O  0.89340760  0.52860429  0.23464134    -0.79100
C280        C  0.89013026  0.36505127  0.21792389     0.96200
O281        O  0.92151739  0.43640071  0.16793986    -0.77100
O282        O  0.79944176  0.41526945  0.22700859    -0.82300
C283        C  0.80335941  0.49758522  0.17361074     0.98800
C284        C  0.78205049  0.44096036  0.23981002     1.04700
O285        O  0.82387730  0.51724312  0.19065306    -0.77900
C286        C  0.89827950  0.42738783  0.14840951     1.03000
Fe287      Fe  0.57295228  0.42447717  0.05745319     1.65800
Fe288      Fe  0.65927442  0.40737721  0.08016265     1.73200
Fe289      Fe  0.64158801  0.48521207  0.04246250     1.54400
O290        O  0.62506683  0.46477540  0.50212918    -0.81600
O291        O  0.68695435  0.45303732  0.09750003    -0.79900
O292        O  0.57301471  0.43473491  0.51271984    -0.84100
O293        O  0.55901580  0.47590791  0.07028387    -0.79000
O294        O  0.69488894  0.46521839  0.03441548    -0.80800
O295        O  0.62690450  0.40718665  0.11705208    -0.83500
C296        C  0.55839065  0.49928914  0.05039871     0.97300
C297        C  0.59660751  0.44695950  0.49438107     1.04700
O298        O  0.62453248  0.43858260  0.05992837    -1.12500
O299        O  0.63717307  0.35789607  0.06438799    -0.74900
O300        O  0.58281745  0.37131668  0.04506901    -0.78400
O301        O  0.58909049  0.51227304  0.04201448    -0.79100
C302        C  0.60849389  0.34884717  0.05016917     0.96200
O303        O  0.56895980  0.41061014  0.10136366    -0.77100
O304        O  0.69374566  0.40571329  0.04474392    -0.82300
C305        C  0.68406748  0.48810290  0.09849402     0.98800
C306        C  0.70858532  0.43293624  0.03242954     1.04700
O307        O  0.66028274  0.50561062  0.08315663    -0.77900
C308        C  0.59249169  0.40767966  0.12178326     1.03000
Fe309      Fe  0.07023375  0.60051693  0.30888188     1.65800
Fe310      Fe  0.15467499  0.61886017  0.33590446     1.73200
Fe311      Fe  0.14173637  0.54338976  0.29393499     1.54400
O312        O  0.09014570  0.51535168  0.28944441    -0.81600
O313        O  0.19040891  0.62393124  0.30127846    -0.79900
O314        O  0.05772354  0.54825199  0.31942907    -0.84100
O315        O  0.07300042  0.58987426  0.26357602    -0.79000
O316        O  0.15853302  0.52103964  0.33448175    -0.80800
O317        O  0.13109923  0.66792185  0.32229890    -0.83500
C318        C  0.09944635  0.58168804  0.24618298     0.97300
C319        C  0.05864760  0.52589952  0.29845553     1.04700
O320        O  0.12205927  0.58802762  0.31298773    -1.12500
O321        O  0.12059298  0.61556805  0.37142764    -0.74900
O322        O  0.06378031  0.61275148  0.35273487    -0.78400
O323        O  0.12920242  0.56658361  0.25446293    -0.79100
C324        C  0.08594162  0.61465681  0.37410519     0.96200
O325        O  0.07916805  0.65411986  0.29907344    -0.77100
O326        O  0.18292491  0.57341246  0.35221837    -0.82300
C327        C  0.20601198  0.59764065  0.28774972     0.98800
C328        C  0.18024868  0.53837527  0.35211721     1.04700
O329        O  0.19448785  0.56475903  0.28991409    -0.77900
C330        C  0.10346443  0.67684832  0.30692827     1.03000
Fe331      Fe  0.42149943  0.57710645  0.46338084     1.65800
Fe332      Fe  0.33691228  0.60575544  0.44391361     1.73200
Fe333      Fe  0.34573617  0.52664626  0.98019883     1.54400
O334        O  0.39530783  0.49478003  0.98321928    -0.81600
O335        O  0.30449556  0.61300745  0.48056712    -0.79900
O336        O  0.42604846  0.52336096  0.45311823    -0.84100
O337        O  0.41724722  0.57088399  0.00987906    -0.79000
O338        O  0.32220565  0.50843831  0.44289380    -0.80800
O339        O  0.36656613  0.65153808  0.45769209    -0.83500
C340        C  0.39132902  0.56239216  0.02752498     0.97300
C341        C  0.42530779  0.50239105  0.47455045     1.04700
O342        O  0.36828919  0.57058267  0.46343841    -1.12500
O343        O  0.36713075  0.60117912  0.40604571    -0.74900
O344        O  0.42444180  0.58641791  0.41900557    -0.78400
O345        O  0.36116234  0.54771770  0.01978408    -0.79100
C346        C  0.40050302  0.59422217  0.39982310     0.96200
O347        O  0.42121992  0.63179571  0.47235939    -0.77100
O348        O  0.30273413  0.56397998  0.42811023    -0.82300
C349        C  0.28461993  0.58439125  0.98992560     0.98800
C350        C  0.30074774  0.52886850  0.42748793     1.04700
O351        O  0.29418457  0.55092604  0.98642580    -0.77900
C352        C  0.39814741  0.65721549  0.46863477     1.03000
C353        C  0.24089528  0.50834168  0.36138716    -0.12200
C354        C  0.20627346  0.51912003  0.37235961     0.04800
C355        C  0.20267332  0.52343337  0.40303620    -0.07500
C356        C  0.23367856  0.52076356  0.42140696    -0.08300
C357        C  0.26905170  0.51384156  0.41010653    -0.02800
C358        C  0.27198464  0.50550462  0.37987669     0.04000
N359        N  0.30684400  0.49702799  0.36715425     0.66500
H360        H  0.24466931  0.50545038  0.33792792     0.15400
H361        H  0.23059559  0.52781089  0.44441837     0.15100
N362        N  0.16833669  0.53421268  0.41565255     0.74200
O363        O  0.31778209  0.46404940  0.36670353    -0.39200
O364        O  0.32177801  0.51992658  0.35038822    -0.39200
O365        O  0.14703434  0.50978709  0.42523092    -0.39900
O366        O  0.16331363  0.56734550  0.42321864    -0.39900
C367        C  0.48761368  0.52548557  0.48990978    -0.12200
C368        C  0.46064460  0.50191219  0.99432701     0.04800
C369        C  0.46384154  0.47672834  0.01754611    -0.07500
C370        C  0.49492359  0.47752132  0.03606958    -0.08300
C371        C  0.52352459  0.50350138  0.03266824    -0.02800
C372        C  0.51827861  0.52717569  0.50870741     0.04000
N373        N  0.54398826  0.55636739  0.50515696     0.66500
H374        H  0.48529996  0.54618980  0.47310739     0.15400
H375        H  0.49690669  0.45690048  0.05296091     0.15100
N376        N  0.43631536  0.44951849  0.02232318     0.74200
O377        O  0.57035267  0.55243654  0.48746986    -0.39200
O378        O  0.53608795  0.58810201  0.51476540    -0.39200
O379        O  0.44131154  0.41719516  0.01272907    -0.39900
O380        O  0.41143297  0.45555431  0.04103484    -0.39900
C381        C  0.99139530  0.50296792  0.23573633    -0.12200
C382        C  0.95946432  0.52287510  0.24402280     0.04800
C383        C  0.96022330  0.54146263  0.27134963    -0.07500
C384        C  0.99181826  0.54001451  0.28919266    -0.08300
C385        C  0.02387712  0.52044395  0.28077209    -0.02800
C386        C  0.02297084  0.50143299  0.25363191     0.04000
N387        N  0.05362323  0.47991147  0.24392705     0.66500
H388        H  0.99178077  0.48756757  0.21529736     0.15400
H389        H  0.99139043  0.55540348  0.30963762     0.15100
N390        N  0.92942482  0.56257262  0.28128936     0.74200
O391        O  0.05508973  0.44618560  0.25014683    -0.39200
O392        O  0.07504149  0.49250816  0.22476965    -0.39200
O393        O  0.90883196  0.54989973  0.30098385    -0.39900
O394        O  0.92737182  0.59623328  0.27495101    -0.39900
C395        C  0.73993163  0.51964282  0.16413196    -0.12200
C396        C  0.77574941  0.51382539  0.15330010     0.04800
C397        C  0.78007671  0.50904590  0.12276342    -0.07500
C398        C  0.74911610  0.50591566  0.10446657    -0.08300
C399        C  0.71319825  0.50747737  0.11579729    -0.02800
C400        C  0.70883881  0.51660165  0.14573057     0.04000
N401        N  0.67306899  0.51941701  0.15835990     0.66500
H402        H  0.73575260  0.52265070  0.18753079     0.15400
H403        H  0.75324430  0.49863454  0.08160387     0.15100
N404        N  0.81570428  0.50342675  0.11036943     0.74200
O405        O  0.66158930  0.49401352  0.17455916    -0.39200
O406        O  0.65714800  0.55029815  0.15907855    -0.39200
O407        O  0.82646227  0.47117111  0.10437113    -0.39900
O408        O  0.83240037  0.53043305  0.09950855    -0.39900
C409        C  0.79749839  0.39089837  0.00297153    -0.12200
C410        C  0.80379958  0.41584398  0.48119094     0.04800
C411        C  0.77967396  0.44501599  0.47477104    -0.07500
C412        C  0.74784077  0.45001893  0.49157892    -0.08300
C413        C  0.74290248  0.42690824  0.01530979    -0.02800
C414        C  0.76598677  0.39607827  0.02004864     0.04000
N415        N  0.75976273  0.37133930  0.04364743     0.66500
H416        H  0.81542843  0.36779364  0.00755717     0.15400
H417        H  0.72921919  0.47225398  0.48619095     0.15100
N418        N  0.78700593  0.46953807  0.45122099     0.74200
O419        O  0.75447548  0.33772012  0.03803818    -0.39200
O420        O  0.76919144  0.38086091  0.06920342    -0.39200
O421        O  0.77154576  0.46427815  0.42682453    -0.39900
O422        O  0.80196283  0.50015463  0.45655379    -0.39900
C423        C  0.90379921  0.39288614  0.10196264    -0.12200
C424        C  0.91008643  0.42546203  0.11768599     0.04800
C425        C  0.92567863  0.45590880  0.10339383    -0.07500
C426        C  0.93431922  0.45337735  0.07352478    -0.08300
C427        C  0.92865346  0.42045954  0.05793335    -0.02800
C428        C  0.91337257  0.38994284  0.07244057     0.04000
N429        N  0.90644034  0.35604360  0.05732481     0.66500
H430        H  0.89150139  0.36947538  0.11273152     0.15400
H431        H  0.94599894  0.47697938  0.06260718     0.15100
N432        N  0.93178961  0.48984295  0.11865463     0.74200
O433        O  0.92745300  0.32894757  0.06153014    -0.39200
O434        O  0.87546581  0.35078312  0.04569506    -0.39200
O435        O  0.96343263  0.49705278  0.12827655    -0.39900
O436        O  0.90832211  0.51531910  0.11690990    -0.39900
C437        C  0.86762705  0.42739237  0.35276614    -0.12200
C438        C  0.89896851  0.43763007  0.36832113     0.04800
C439        C  0.92872444  0.45394323  0.35362490    -0.07500
C440        C  0.92631017  0.46036429  0.32342567    -0.08300
C441        C  0.89438652  0.45073579  0.30797082    -0.02800
C442        C  0.86506045  0.43384018  0.32288232     0.04000
N443        N  0.83292605  0.42179039  0.30771487     0.66500
H444        H  0.84510093  0.41392183  0.36387031     0.15400
H445        H  0.94906722  0.47314608  0.31215125     0.15100
N446        N  0.96185509  0.46270882  0.36891492     0.74200
O447        O  0.83233847  0.38992024  0.29651693    -0.39200
O448        O  0.80319653  0.43918079  0.31125251    -0.39200
O449        O  0.98325692  0.43727891  0.37674299    -0.39900
O450        O  0.96704749  0.49508152  0.37822598    -0.39900
C451        C  0.01647715  0.28485577  0.40851912    -0.12200
C452        C  0.99928224  0.31739703  0.39889732     0.04800
C453        C  0.98844747  0.31894016  0.36920011    -0.07500
C454        C  0.99174702  0.28774859  0.35093569    -0.08300
C455        C  0.00453610  0.25383816  0.36148784    -0.02800
C456        C  0.01911848  0.25320752  0.39015186     0.04000
N457        N  0.03410280  0.22006583  0.40170480     0.66500
H458        H  0.02448215  0.28267792  0.43128422     0.15400
H459        H  0.98003470  0.28892874  0.32913334     0.15100
N460        N  0.96948877  0.35036323  0.35812950     0.74200
O461        O  0.06777632  0.21320972  0.39796262    -0.39200
O462        O  0.01646082  0.20268505  0.42089046    -0.39200
O463        O  0.98561938  0.37072283  0.34000158    -0.39900
O464        O  0.93490362  0.35139049  0.35960793    -0.39900
C465        C  0.88453982  0.27301313  0.25657592    -0.12200
C466        C  0.92206656  0.26479787  0.26039592     0.04800
C467        C  0.94828348  0.28744469  0.24660752    -0.07500
C468        C  0.93681851  0.31852872  0.23133796    -0.08300
C469        C  0.89950283  0.32803743  0.22916560    -0.02800
C470        C  0.87309531  0.30409466  0.24106645     0.04000
N471        N  0.83469342  0.31182109  0.23911795     0.66500
H472        H  0.86371066  0.25575335  0.26630565     0.15400
H473        H  0.95759909  0.33608018  0.22184505     0.15100
N474        N  0.98678018  0.28019538  0.24852483     0.74200
O475        O  0.81609708  0.29668588  0.21907887    -0.39200
O476        O  0.81832164  0.32597284  0.26085408    -0.39200
O477        O  0.00251389  0.26248737  0.22814190    -0.39900
O478        O  0.00591023  0.29788105  0.26686105    -0.39900
C479        C  0.21010709  0.63667267  0.03236095    -0.12200
C480        C  0.18752541  0.60779947  0.04155723     0.04800
C481        C  0.19861712  0.57117930  0.03556191    -0.07500
C482        C  0.23038003  0.56436666  0.01905788    -0.08300
C483        C  0.25191628  0.59334061  0.00831276    -0.02800
C484        C  0.24180446  0.62998095  0.01581051     0.04000
N485        N  0.26254752  0.66099985  0.00624551     0.66500
H486        H  0.20218064  0.66499226  0.03668882     0.15400
H487        H  0.23792840  0.53602719  0.01443697     0.15100
N488        N  0.17840474  0.54052548  0.04646541     0.74200
O489        O  0.26217692  0.68193286  0.48925802    -0.39200
O490        O  0.27966749  0.68018873  0.02490830    -0.39200
O491        O  0.16064885  0.52034336  0.02888896    -0.39900
O492        O  0.18492254  0.52908975  0.07193922    -0.39900
C493        C  0.01140136  0.52685360  0.03961567    -0.12200
C494        C  0.99285538  0.55892622  0.03028480     0.04800
C495        C  0.96985542  0.56193619  0.50485386    -0.07500
C496        C  0.97191614  0.53037952  0.48660773    -0.08300
C497        C  0.99909050  0.49434836  0.99343405    -0.02800
C498        C  0.01491948  0.49523960  0.02166956     0.04000
N499        N  0.03522923  0.46457989  0.03250874     0.66500
H500        H  0.02437462  0.52644011  0.06094706     0.15400
H501        H  0.95731440  0.53079172  0.46596158     0.15100
N502        N  0.94936155  0.59302748  0.49502217     0.74200
O503        O  0.02071776  0.44372845  0.05114125    -0.39200
O504        O  0.06953217  0.46341711  0.02868344    -0.39200
O505        O  0.96263656  0.61341621  0.47549656    -0.39900
O506        O  0.91571631  0.59565026  0.50135002    -0.39900
C507        C  0.04724831  0.64888660  0.44507062    -0.12200
C508        C  0.05422705  0.61872510  0.46356618     0.04800
C509        C  0.06768995  0.58558706  0.45099397    -0.07500
C510        C  0.07588179  0.58422956  0.42108057    -0.08300
C511        C  0.07109672  0.61523285  0.40360909    -0.02800
C512        C  0.05572008  0.64737848  0.41541802     0.04000
N513        N  0.05073192  0.67945208  0.39798750     0.66500
H514        H  0.03641576  0.67461676  0.45366274     0.15400
H515        H  0.08746651  0.55928409  0.41163840     0.15100
N516        N  0.07473242  0.55363736  0.46808469     0.74200
O517        O  0.02075206  0.68416595  0.38472374    -0.39200
O518        O  0.07280562  0.70598385  0.40060928    -0.39200
O519        O  0.05857357  0.52399428  0.46162370    -0.39900
O520        O  0.10357999  0.55235227  0.48327454    -0.39900
C521        C  0.11994578  0.61987721  0.17147403    -0.12200
C522        C  0.09046634  0.60645962  0.15489788     0.04800
C523        C  0.06350716  0.58463817  0.16863038    -0.07500
C524        C  0.06605739  0.57762403  0.19872939    -0.08300
C525        C  0.09598970  0.59067782  0.21501900    -0.02800
C526        C  0.12320265  0.61171547  0.20111635     0.04000
N527        N  0.15420187  0.62538389  0.21691595     0.66500
H528        H  0.14094331  0.63649700  0.16124472     0.15400
H529        H  0.04505369  0.56132922  0.20924393     0.15100
N530        N  0.03327248  0.56982805  0.15252375     0.74200
O531        O  0.18486465  0.60962011  0.21373346    -0.39200
O532        O  0.15285845  0.65711637  0.22836802    -0.39200
O533        O  0.03421700  0.53656407  0.14433507    -0.39900
O534        O  0.00311713  0.58700121  0.15227051    -0.39900
C535        C  0.00081327  0.02842568  0.28883458    -0.12200
C536        C  0.02059056  0.06009992  0.28049692     0.04800
C537        C  0.03920900  0.05859488  0.25332893    -0.07500
C538        C  0.03730920  0.02669391  0.23544659    -0.08300
C539        C  0.01741308  0.99506201  0.24376733    -0.02800
C540        C  0.99896811  0.99653570  0.27103409     0.04000
N541        N  0.97797887  0.96606221  0.28119226     0.66500
H542        H  0.98571315  0.02846112  0.30929189     0.15400
H543        H  0.05254005  0.02651519  0.21505069     0.15100
N544        N  0.06097315  0.08877008  0.24368538     0.74200
O545        O  0.99169820  0.94483996  0.29996555    -0.39200
O546        O  0.94371635  0.96587642  0.27715808    -0.39200
O547        O  0.09474579  0.08939293  0.24977544    -0.39900
O548        O  0.04886285  0.10943889  0.22386404    -0.39900
C549        C  0.01486953  0.73724610  0.14809372    -0.12200
C550        C  0.01084154  0.74462530  0.11817369     0.04800
C551        C  0.00675975  0.78184507  0.10976614    -0.07500
C552        C  0.00956046  0.81058159  0.13077289    -0.08300
C553        C  0.01728284  0.80316377  0.16025770    -0.02800
C554        C  0.01851195  0.76583686  0.16894379     0.04000
N555        N  0.02827513  0.75637496  0.19822837     0.66500
H556        H  0.01941203  0.70912209  0.15496710     0.15400
H557        H  0.00979542  0.83882676  0.12337872     0.15100
N558        N  0.00484258  0.79122641  0.07951272     0.74200
O559        O  0.00325585  0.74888380  0.21632986    -0.39200
O560        O  0.06084624  0.74665556  0.20361301    -0.39200
O561        O  0.97469873  0.80196203  0.06898313    -0.39900
O562        O  0.03415470  0.79693599  0.06553526    -0.39900
C563        C  0.06432564  0.76455746  0.27605553    -0.12200
C564        C  0.09587270  0.78048837  0.26369077     0.04800
C565        C  0.13036221  0.76381068  0.26903013    -0.07500
C566        C  0.13237152  0.73143388  0.28523936    -0.08300
C567        C  0.10059803  0.71453229  0.29574918    -0.02800
C568        C  0.06634306  0.73179055  0.29164480     0.04000
N569        N  0.03327063  0.71632112  0.30299790     0.66500
H570        H  0.03752487  0.77691834  0.27298198     0.15400
H571        H  0.15883614  0.71825842  0.28807129     0.15100
N572        N  0.16366414  0.77850602  0.25767475     0.74200
O573        O  0.01288694  0.69752934  0.28629792    -0.39200
O574        O  0.02059961  0.72825095  0.32702468    -0.39200
O575        O  0.18668191  0.79203734  0.27533902    -0.39900
O576        O  0.17413462  0.76876626  0.23238782    -0.39900
C577        C  0.69561244  0.44645813  0.28738964    -0.12200
C578        C  0.68673522  0.40899110  0.29005647     0.04800
C579        C  0.71010514  0.38259489  0.27703959    -0.07500
C580        C  0.74108992  0.39376080  0.26145226    -0.08300
C581        C  0.74940952  0.43120995  0.25779222    -0.02800
C582        C  0.72630119  0.45778122  0.27130497     0.04000
N583        N  0.73236797  0.49633358  0.26789931     0.66500
H584        H  0.67770556  0.46729518  0.29685315     0.15400
H585        H  0.75801876  0.37266123  0.25127924     0.15100
N586        N  0.70079834  0.34453632  0.27666502     0.74200
O587        O  0.71706743  0.51296353  0.24705963    -0.39200
O588        O  0.74599968  0.51472079  0.28878136    -0.39200
O589        O  0.68529784  0.33111522  0.25429573    -0.39900
O590        O  0.71553752  0.32336239  0.29497337    -0.39900
C591        C  0.53654608  0.39117060  0.19111852    -0.12200
C592        C  0.56052030  0.40513932  0.21261144     0.04800
C593        C  0.59385197  0.42119590  0.20378526    -0.07500
C594        C  0.60350464  0.42107654  0.17419849    -0.08300
C595        C  0.58006154  0.40654451  0.15266778    -0.02800
C596        C  0.54579141  0.39215590  0.16128981     0.04000
N597        N  0.52116808  0.37631258  0.14037740     0.66500
H598        H  0.51091818  0.37852205  0.19758628     0.15400
H599        H  0.62981737  0.43232929  0.16803865     0.15100
N600        N  0.61946881  0.43546339  0.22465313     0.74200
O601        O  0.52440450  0.34275483  0.13342443    -0.39200
O602        O  0.49246840  0.39358960  0.13330976    -0.39200
O603        O  0.64978084  0.41920700  0.22812013    -0.39900
O604        O  0.61563703  0.46801808  0.23409199    -0.39900
C605        C  0.60169107  0.44854380  0.41081528    -0.12200
C606        C  0.58821586  0.41345339  0.40376813     0.04800
C607        C  0.57498224  0.39107515  0.42650569    -0.07500
C608        C  0.57665212  0.40339004  0.45559053    -0.08300
C609        C  0.59186036  0.43769970  0.46288863    -0.02800
C610        C  0.60405012  0.46072076  0.44000304     0.04000
N611        N  0.61820869  0.49675057  0.44567236     0.66500
H612        H  0.61141866  0.46636016  0.39358235     0.15400
H613        H  0.56675779  0.38541920  0.47266726     0.15100
N614        N  0.55761812  0.35672069  0.42038852     0.74200
O615        O  0.65140731  0.50022503  0.45303264    -0.39200
O616        O  0.60156075  0.52414590  0.43522657    -0.39200
O617        O  0.57610489  0.32736304  0.42176532    -0.39900
O618        O  0.52305772  0.35516088  0.42125135    -0.39900
C619        C  0.51830836  0.20312904  0.37307066    -0.12200
C620        C  0.51305052  0.21029756  0.40306793     0.04800
C621        C  0.50182934  0.24627705  0.41139651    -0.07500
C622        C  0.49926051  0.27454029  0.39036747    -0.08300
C623        C  0.50915206  0.26830991  0.36100343    -0.02800
C624        C  0.51667497  0.23151701  0.35224618     0.04000
N625        N  0.52690599  0.22312297  0.32271994     0.66500
H626        H  0.52766524  0.17611579  0.36607927     0.15400
H627        H  0.49317060  0.30219638  0.39760120     0.15100
N628        N  0.49816833  0.25597214  0.44162297     0.74200
O629        O  0.56049434  0.22024035  0.31632015    -0.39200
O630        O  0.50328130  0.20965116  0.30553601    -0.39200
O631        O  0.52521650  0.26985826  0.45491905    -0.39900
O632        O  0.46653633  0.25870220  0.45273977    -0.39900
C633        C  0.56901867  0.29482896  0.03939631    -0.12200
C634        C  0.60401960  0.31087914  0.03867304     0.04800
C635        C  0.63300520  0.29133319  0.02521339    -0.07500
C636        C  0.62628892  0.25720272  0.01179907    -0.08300
C637        C  0.59094628  0.24159745  0.01140162    -0.02800
C638        C  0.56233131  0.26033713  0.02646804     0.04000
N639        N  0.52891768  0.24600842  0.52780979     0.66500
H640        H  0.54657855  0.30919264  0.05022174     0.15400
H641        H  0.64892337  0.24349838  0.00072946     0.15100
N642        N  0.66902740  0.30651113  0.02340842     0.74200
O643        O  0.52093893  0.22029552  0.04802669    -0.39200
O644        O  0.50251968  0.26166004  0.51506499    -0.39200
O645        O  0.69529606  0.28988307  0.03551738    -0.39900
O646        O  0.67579026  0.33054135  0.00439518    -0.39900
C647        C  0.24971411  0.57675424  0.24921800    -0.12200
C648        C  0.23849933  0.60464989  0.26887172     0.04800
C649        C  0.25823736  0.63820469  0.26939392    -0.07500
C650        C  0.28937668  0.64227315  0.25159525    -0.08300
C651        C  0.30150878  0.61338274  0.23336753    -0.02800
C652        C  0.28061122  0.58095280  0.23149088     0.04000
N653        N  0.29021110  0.55214305  0.21133814     0.66500
H654        H  0.23439161  0.55131345  0.24744721     0.15400
H655        H  0.30546438  0.66724137  0.25347472     0.15100
N656        N  0.24861826  0.66753285  0.28905985     0.74200
O657        O  0.30501980  0.52311549  0.22067629    -0.39200
O658        O  0.27725629  0.55259457  0.18572564    -0.39200
O659        O  0.26421639  0.66976127  0.31367321    -0.39900
O660        O  0.23102452  0.69488618  0.27957503    -0.39900
C661        C  0.50348446  0.52450990  0.27008177    -0.12200
C662        C  0.49008532  0.52147670  0.24130781     0.04800
C663        C  0.47524501  0.48686805  0.23253670    -0.07500
C664        C  0.47551473  0.45661136  0.25176940    -0.08300
C665        C  0.48931936  0.45961848  0.28046055    -0.02800
C666        C  0.50266903  0.49466455  0.28957915     0.04000
N667        N  0.51501288  0.50090190  0.31889773     0.66500
H668        H  0.51349450  0.55080482  0.27807499     0.15400
H669        H  0.46532703  0.43033922  0.24388391     0.15100
N670        N  0.45928552  0.48181134  0.20421633     0.74200
O671        O  0.54899266  0.50248323  0.32409123    -0.39200
O672        O  0.49253179  0.51248039  0.33794899    -0.39200
O673        O  0.47756405  0.46587905  0.18428180    -0.39900
O674        O  0.42505366  0.48566176  0.20118799    -0.39900
C675        C  0.38398692  0.58501220  0.34797438    -0.12200
C676        C  0.41105346  0.59380097  0.36866034     0.04800
C677        C  0.44711263  0.60109333  0.35904112    -0.07500
C678        C  0.45505399  0.60021972  0.32906239    -0.08300
C679        C  0.42777793  0.59145721  0.30845916    -0.02800
C680        C  0.39213299  0.58288509  0.31819594     0.04000
N681        N  0.36330891  0.57393376  0.29814598     0.66500
H682        H  0.35616594  0.57968501  0.35496095     0.15400
H683        H  0.48245309  0.60726510  0.32179737     0.15100
N684        N  0.47528409  0.61181641  0.37911195     0.74200
O685        O  0.36095069  0.54150508  0.28817071    -0.39200
O686        O  0.33598760  0.59517644  0.29618540    -0.39200
O687        O  0.50061393  0.58941434  0.38520469    -0.39900
O688        O  0.47871344  0.64531156  0.38612715    -0.39900
C689        C  0.37830952  0.61015727  0.09970463    -0.12200
C690        C  0.39669766  0.58647731  0.11879134     0.04800
C691        C  0.41467169  0.55486034  0.10731842    -0.07500
C692        C  0.41394069  0.54779150  0.07711823    -0.08300
C693        C  0.39521438  0.57157331  0.05843212    -0.02800
C694        C  0.37724874  0.60277741  0.06983137     0.04000
N695        N  0.35710028  0.62689505  0.05132406     0.66500
H696        H  0.36423658  0.63444826  0.10801145     0.15400
H697        H  0.42756200  0.52353479  0.06831667     0.15100
N698        N  0.43432390  0.53018080  0.12578653     0.74200
O699        O  0.32340509  0.62098994  0.04719186    -0.39200
O700        O  0.37019246  0.65806350  0.04549394    -0.39200
O701        O  0.41965135  0.50021130  0.13305499    -0.39900
O702        O  0.46832256  0.53464710  0.12964613    -0.39900
C703        C  0.49430516  0.99112901  0.03522234    -0.12200
C704        C  0.51781127  0.96058385  0.03018905     0.04800
C705        C  0.53847194  0.96487384  0.50961635    -0.07500
C706        C  0.53940655  0.99559898  0.49085695    -0.08300
C707        C  0.51605711  0.02314850  0.99145668    -0.02800
C708        C  0.49306141  0.02167183  0.01636890     0.04000
N709        N  0.46757960  0.05060770  0.02274776     0.66500
H710        H  0.47565804  0.99110160  0.05372236     0.15400
H711        H  0.55231021  0.99229378  0.46960073     0.15100
N712        N  0.55202188  0.93031632  0.49902872     0.74200
O713        O  0.43545204  0.04874957  0.01254292    -0.39200
O714        O  0.47442066  0.07318017  0.04318979    -0.39200
O715        O  0.53335373  0.91209044  0.48073113    -0.39900
O716        O  0.58530962  0.92208659  0.50299045    -0.39900
C717        C  0.49778221  0.73735011  0.10603971    -0.12200
C718        C  0.50365466  0.77262470  0.11830186     0.04800
C719        C  0.51121875  0.77470640  0.14867186    -0.07500
C720        C  0.51003978  0.74270229  0.16605533    -0.08300
C721        C  0.50027648  0.70821239  0.15424694    -0.02800
C722        C  0.49561216  0.70559608  0.12356636     0.04000
N723        N  0.48441964  0.67166561  0.11027491     0.66500
H724        H  0.49080413  0.73490704  0.08302608     0.15400
H725        H  0.51261770  0.74568976  0.18960566     0.15100
N726        N  0.51592474  0.80947195  0.16297513     0.74200
O727        O  0.50836492  0.65036816  0.09942118    -0.39200
O728        O  0.45103942  0.66673870  0.10404483    -0.39200
O729        O  0.49433439  0.81847586  0.18346737    -0.39900
O730        O  0.54633047  0.82575898  0.16080750    -0.39900
C731        C  0.44380608  0.74033475  0.00052192    -0.12200
C732        C  0.41650081  0.75772487  0.01749797     0.04800
C733        C  0.38733205  0.74719515  0.50839109    -0.07500
C734        C  0.37945618  0.71651308  0.49093051    -0.08300
C735        C  0.40766771  0.69410965  0.47993512    -0.02800
C736        C  0.43583022  0.70973171  0.98301350     0.04000
N737        N  0.46484096  0.69288723  0.96652221     0.66500
H738        H  0.47188924  0.75005487  0.00109902     0.15400
H739        H  0.35098432  0.70911437  0.48739185     0.15100
N740        N  0.35740223  0.76945033  0.51853777     0.74200
O741        O  0.47095687  0.70352415  0.94076631    -0.39200
O742        O  0.48887740  0.67411479  0.97956191    -0.39200
O743        O  0.34014798  0.78872430  0.50028189    -0.39900
O744        O  0.34224887  0.76192978  0.54260536    -0.39900
C745        C  0.44554388  0.79467869  0.29057833    -0.12200
C746        C  0.40998295  0.80987441  0.29230429     0.04800
C747        C  0.38066218  0.79008092  0.27974892    -0.07500
C748        C  0.38749937  0.75698640  0.26472643    -0.08300
C749        C  0.42332424  0.74270512  0.26152644    -0.02800
C750        C  0.45248253  0.76162277  0.27541958     0.04000
N751        N  0.48949179  0.74862940  0.27360505     0.66500
H752        H  0.46853248  0.80922671  0.30025981     0.15400
H753        H  0.36440029  0.74305901  0.25466440     0.15100
N754        N  0.34421049  0.80460589  0.27970017     0.74200
O755        O  0.51040806  0.76098830  0.25399200    -0.39200
O756        O  0.50322575  0.73186663  0.29505490    -0.39200
O757        O  0.33287289  0.82127774  0.25735720    -0.39900
O758        O  0.32131705  0.79335987  0.29831330    -0.39900
C759        C  0.44258632  0.89634293  0.17743019    -0.12200
C760        C  0.42764695  0.92095751  0.15718034     0.04800
C761        C  0.41606579  0.95601074  0.16695741    -0.07500
C762        C  0.41768979  0.96480635  0.19687981    -0.08300
C763        C  0.43112499  0.93933664  0.21733928    -0.02800
C764        C  0.44481022  0.90523547  0.20716196     0.04000
N765        N  0.45842799  0.87812495  0.22685176     0.66500
H766        H  0.45196812  0.86959991  0.17012084     0.15400
H767        H  0.40710907  0.99121123  0.20426600     0.15100
N768        N  0.40005625  0.98183871  0.14730834     0.74200
O769        O  0.43876529  0.85069559  0.23289673    -0.39200
O770        O  0.49215899  0.87760890  0.23310807    -0.39200
O771        O  0.36557395  0.98359505  0.14500973    -0.39900
O772        O  0.41946692  0.00753481  0.13730823    -0.39900
C773        C  0.44283988  0.87545478  0.41795555    -0.12200
C774        C  0.42276903  0.90519105  0.40729675     0.04800
C775        C  0.40627631  0.93015220  0.42714383    -0.07500
C776        C  0.40993675  0.92525088  0.45726647    -0.08300
C777        C  0.42999896  0.89554320  0.46816512    -0.02800
C778        C  0.44623544  0.87013275  0.44814078     0.04000
N779        N  0.46411654  0.83748073  0.45798453     0.66500
H780        H  0.45452326  0.85541062  0.40283676     0.15400
H781        H  0.39773678  0.94529298  0.47212053     0.15100
N782        N  0.38647136  0.96130331  0.41691297     0.74200
O783        O  0.44535313  0.80880111  0.46181810    -0.39200
O784        O  0.49861639  0.83495503  0.45634207    -0.39200
O785        O  0.35219071  0.96286732  0.42067115    -0.39900
O786        O  0.40385843  0.98983035  0.40978854    -0.39900
C787        C  0.27081402  0.89966710  0.24918481    -0.12200
C788        C  0.27951187  0.93501926  0.25983502     0.04800
C789        C  0.25563139  0.96440261  0.25311222    -0.07500
C790        C  0.22214095  0.95719315  0.23918697    -0.08300
C791        C  0.21219236  0.92126794  0.23044575    -0.02800
C792        C  0.23819634  0.89273409  0.23389227     0.04000
N793        N  0.23221951  0.85660642  0.22218159     0.66500
H794        H  0.28955353  0.87704595  0.25270053     0.15400
H795        H  0.20350579  0.98001686  0.23568388     0.15100
N796        N  0.26441008  0.00163308  0.26056998     0.74200
O797        O  0.23488544  0.85140249  0.19488825    -0.39200
O798        O  0.23398910  0.82930252  0.23894490    -0.39200
O799        O  0.27920724  0.02169559  0.24152390    -0.39900
O800        O  0.24952064  0.01655654  0.28265891    -0.39900
C801        C  0.07616810  0.81482783  0.47794958    -0.12200
C802        C  0.11326665  0.82490548  0.47706549     0.04800
C803        C  0.13948313  0.80219225  0.49059394    -0.07500
C804        C  0.13110981  0.76986746  0.00866799    -0.08300
C805        C  0.09407833  0.75885490  0.00925009    -0.02800
C806        C  0.06850907  0.77848676  0.99203485     0.04000
N807        N  0.03166831  0.76591058  0.98817203     0.66500
H808        H  0.05573268  0.83199701  0.46748380     0.15400
H809        H  0.15162698  0.75473851  0.02082459     0.15100
N810        N  0.17741787  0.81211871  0.49128863     0.74200
O811        O  0.00568375  0.78243938  0.00108589    -0.39200
O812        O  0.01317492  0.75370257  0.47515201    -0.39200
O813        O  0.19194546  0.83033409  0.01548954    -0.39900
O814        O  0.19970283  0.79626115  0.47411506    -0.39900
C815        C  0.26668867  0.00248556  0.35603977    -0.12200
C816        C  0.30239588  0.01035817  0.36562911     0.04800
C817        C  0.30649007  0.02465946  0.39454544    -0.07500
C818        C  0.27616967  0.02290528  0.41440237    -0.08300
C819        C  0.24137617  0.01019987  0.40523609    -0.02800
C820        C  0.23659932  0.00297470  0.37513572     0.04000
N821        N  0.20152232  0.99306040  0.36386023     0.66500
H822        H  0.26256748  0.99209813  0.33398112     0.15400
H823        H  0.28020866  0.02946841  0.43735791     0.15100
N824        N  0.34076549  0.04029677  0.40407649     0.74200
O825        O  0.18125434  0.01812447  0.35379168    -0.39200
O826        O  0.19565275  0.96002575  0.35650871    -0.39200
O827        O  0.36280111  0.05345340  0.38559284    -0.39900
O828        O  0.34684927  0.04579107  0.43099239    -0.39900
C829        C  0.27162080  0.94456066  0.03417559    -0.12200
C830        C  0.26316164  0.92346891  0.00913129     0.04800
C831        C  0.28608491  0.88765137  0.49845757    -0.07500
C832        C  0.31323078  0.87475700  0.51734680    -0.08300
C833        C  0.32374577  0.90500947  0.04426533    -0.02800
C834        C  0.30202240  0.93586129  0.05149848     0.04000
N835        N  0.31072705  0.95875643  0.07613328     0.66500
H836        H  0.25488840  0.96820874  0.04011783     0.15400
H837        H  0.33501803  0.85756878  0.50856671     0.15100
N838        N  0.28672126  0.87638589  0.46835219     0.74200
O839        O  0.33053345  0.98678887  0.07257130    -0.39200
O840        O  0.29256615  0.95556955  0.09952028    -0.39200
O841        O  0.29554884  0.89901620  0.44879457    -0.39900
O842        O  0.27609875  0.84454502  0.46112707    -0.39900
C843        C  0.12462005  0.97816996  0.08185187    -0.12200
C844        C  0.11682005  0.95114181  0.06071628     0.04800
C845        C  0.10462687  0.91630509  0.06959055    -0.07500
C846        C  0.10253953  0.90825774  0.09932727    -0.08300
C847        C  0.11156654  0.93478997  0.12074351    -0.02800
C848        C  0.12116336  0.97064906  0.11171588     0.04000
N849        N  0.12784328  0.99962967  0.13239278     0.66500
H850        H  0.13347783  0.00524113  0.07515224     0.15400
H851        H  0.09421498  0.88083021  0.10561503     0.15100
N852        N  0.09712328  0.88787419  0.04863308     0.74200
O853        O  0.16042423  0.00781600  0.13908877    -0.39200
O854        O  0.10215427  0.02160277  0.13897861    -0.39200
O855        O  0.12306575  0.86848224  0.03854317    -0.39900
O856        O  0.06456565  0.88165851  0.04061611    -0.39900
C857        C  0.06689105  0.90277213  0.33073562    -0.12200
C858        C  0.08072845  0.92970009  0.31159975     0.04800
C859        C  0.10142039  0.95916537  0.32342160    -0.07500
C860        C  0.10923895  0.95985378  0.35337827    -0.08300
C861        C  0.09817740  0.93115068  0.37145844    -0.02800
C862        C  0.07574522  0.90316017  0.36036252     0.04000
N863        N  0.06381058  0.87367175  0.37849017     0.66500
H864        H  0.05031069  0.88017630  0.32261690     0.15400
H865        H  0.12505183  0.98222064  0.36254302     0.15100
N866        N  0.11647985  0.98730631  0.30537717     0.74200
O867        O  0.03331895  0.87602622  0.39153016    -0.39200
O868        O  0.08041388  0.84315948  0.37736958    -0.39200
O869        O  0.10400199  0.01967468  0.30732887    -0.39900
O870        O  0.14663950  0.98166581  0.29241118    -0.39900
C871        C  0.63636341  0.20917549  0.24245060    -0.12200
C872        C  0.60865164  0.19154452  0.22662070     0.04800
C873        C  0.57296686  0.20646973  0.22664803    -0.07500
C874        C  0.56565134  0.23866646  0.24258744    -0.08300
C875        C  0.59293309  0.25547689  0.25992782    -0.02800
C876        C  0.62868794  0.23989877  0.26004726     0.04000
N877        N  0.65652630  0.25194702  0.28000518     0.66500
H878        H  0.66340003  0.19672200  0.24359695     0.15400
H879        H  0.53803760  0.24979296  0.24205170     0.15100
N880        N  0.54376354  0.18899558  0.21098518     0.74200
O881        O  0.68877302  0.25646869  0.27059317    -0.39200
O882        O  0.65174666  0.24715730  0.30708656    -0.39200
O883        O  0.52093923  0.16957766  0.22470947    -0.39900
O884        O  0.53609137  0.19961128  0.18549793    -0.39900
C885        C  0.49345600  0.01254886  0.25692134    -0.12200
C886        C  0.49667930  0.99872153  0.28543837     0.04800
C887        C  0.53092192  0.98253454  0.29315407    -0.07500
C888        C  0.56057671  0.98153596  0.27305653    -0.08300
C889        C  0.55728202  0.99552461  0.24453787    -0.02800
C890        C  0.52258522  0.01055514  0.23658770     0.04000
N891        N  0.51601987  0.02383543  0.20770475     0.66500
H892        H  0.46745627  0.02385406  0.24975020     0.15400
H893        H  0.58663881  0.97029915  0.28014026     0.15100
N894        N  0.53632358  0.96690022  0.32139736     0.74200
O895        O  0.50507971  0.00178189  0.18807134    -0.39200
O896        O  0.51381829  0.05804024  0.20349113    -0.39200
O897        O  0.53442743  0.93245211  0.32428951    -0.39900
O898        O  0.55052118  0.98617261  0.34151800    -0.39900
C899        C  0.59518585  0.10816141  0.34803370    -0.12200
C900        C  0.61232609  0.08531844  0.36853224     0.04800
C901        C  0.62929650  0.05243257  0.35898424    -0.07500
C902        C  0.62994615  0.04370416  0.32912433    -0.08300
C903        C  0.61395343  0.06729469  0.30853567    -0.02800
C904        C  0.59579171  0.09943311  0.31823917     0.04000
N905        N  0.58065034  0.12509312  0.29804012     0.66500
H906        H  0.58183291  0.13342099  0.35511358     0.15400
H907        H  0.64416715  0.01898024  0.32189088     0.15100
N908        N  0.64841328  0.02916242  0.37891626     0.74200
O909        O  0.54641425  0.12587146  0.29391750    -0.39200
O910        O  0.60007615  0.15156727  0.28944359    -0.39200
O911        O  0.63466355  0.99862904  0.38584284    -0.39900
O912        O  0.68175042  0.03541677  0.38449219    -0.39900
C913        C  0.62179105  0.06981597  0.09726302    -0.12200
C914        C  0.59895151  0.08682838  0.11808649     0.04800
C915        C  0.56551912  0.10270440  0.10916656    -0.07500
C916        C  0.55676574  0.10351647  0.07942699    -0.08300
C917        C  0.58045749  0.08796407  0.05836168    -0.02800
C918        C  0.61269576  0.06981862  0.06763595     0.04000
N919        N  0.63770001  0.05321449  0.04726304     0.66500
H920        H  0.64723130  0.05686546  0.10398567     0.15400
H921        H  0.53174149  0.11725893  0.07275149     0.15100
N922        N  0.54143122  0.12034608  0.12968597     0.74200
O923        O  0.66598600  0.07062647  0.03961255    -0.39200
O924        O  0.63598119  0.01901449  0.04239295    -0.39200
O925        O  0.54265094  0.15485718  0.13278412    -0.39900
O926        O  0.51405269  0.10301784  0.13930960    -0.39900
C927        C  0.77821758  0.07321434  0.27437253    -0.12200
C928        C  0.76103179  0.09968000  0.25673095     0.04800
C929        C  0.77593920  0.13567682  0.25615312    -0.07500
C930        C  0.80740539  0.14403904  0.27259214    -0.08300
C931        C  0.82508950  0.11705152  0.28920898    -0.02800
C932        C  0.80995653  0.08146215  0.29027039     0.04000
N933        N  0.82625680  0.05342553  0.30774042     0.66500
H934        H  0.76727644  0.04558040  0.27569920     0.15400
H935        H  0.81926124  0.17128803  0.27101717     0.15100
N936        N  0.76088386  0.16358398  0.23786911     0.74200
O937        O  0.81641646  0.05023672  0.33409097    -0.39200
O938        O  0.84381175  0.02753661  0.29546243    -0.39200
O939        O  0.74179128  0.18903920  0.24919483    -0.39900
O940        O  0.77302075  0.16715970  0.21215581    -0.39900
C941        C  0.94803858  0.22692720  0.03465045    -0.12200
C942        C  0.91229632  0.21384478  0.03931407     0.04800
C943        C  0.88263768  0.23730151  0.53034553    -0.07500
C944        C  0.88852370  0.26882321  0.51372452    -0.08300
C945        C  0.92463425  0.27768065  0.00568465    -0.02800
C946        C  0.95451843  0.25815857  0.01788843     0.04000
N947        N  0.99174229  0.26863840  0.01272492     0.66500
H948        H  0.97141976  0.21190162  0.04311589     0.15400
H949        H  0.86484148  0.28278696  0.50470186     0.15100
N950        N  0.84615706  0.22354233  0.53279055     0.74200
O951        O  0.00872121  0.28699730  0.03197935    -0.39200
O952        O  0.00952179  0.25336968  0.99217854    -0.39200
O953        O  0.82400575  0.23907819  0.55025604    -0.39900
O954        O  0.83401802  0.20234178  0.51302159    -0.39900
C955        C  0.02243768  0.04407584  0.03774949    -0.12200
C956        C  0.99256681  0.01996464  0.03265021     0.04800
C957        C  0.99654763  0.00155648  0.50634512    -0.07500
C958        C  0.02878632  0.00185020  0.48926882    -0.08300
C959        C  0.05670495  0.01961753  0.99561332    -0.02800
C960        C  0.05403329  0.04404969  0.01976451     0.04000
N961        N  0.08244131  0.07001309  0.02585555     0.66500
H962        H  0.02097023  0.06414060  0.05542719     0.15400
H963        H  0.02902111  0.98539754  0.46934890     0.15100
N964        N  0.96639522  0.97960572  0.49662335     0.74200
O965        O  0.10589530  0.06299992  0.04533442    -0.39200
O966        O  0.07923769  0.10253441  0.01675746    -0.39200
O967        O  0.94724244  0.99021217  0.47529759    -0.39900
O968        O  0.96421411  0.94660826  0.50478156    -0.39900
C969        C  0.80951896  0.01210256  0.14525334    -0.12200
C970        C  0.80300880  0.01875953  0.11542889     0.04800
C971        C  0.76623806  0.01734096  0.10547332    -0.07500
C972        C  0.73702929  0.01317896  0.12540230    -0.08300
C973        C  0.74319013  0.01021134  0.15560112    -0.02800
C974        C  0.78010470  0.00744667  0.16519991     0.04000
N975        N  0.78820131  0.00353346  0.19560757     0.66500
H976        H  0.83732110  0.01363931  0.15358776     0.15400
H977        H  0.70915205  0.01635574  0.11750610     0.15100
N978        N  0.75766342  0.02499911  0.07564543     0.74200
O979        O  0.79714071  0.03147034  0.21057409    -0.39200
O980        O  0.79459641  0.97186954  0.20551780    -0.39200
O981        O  0.75494961  0.99867060  0.05755427    -0.39900
O982        O  0.74415326  0.05591212  0.06931216    -0.39900
C983        C  0.71855186  0.13449086  0.00245495    -0.12200
C984        C  0.71191213  0.11287857  0.47999999     0.04800
C985        C  0.73471034  0.08189817  0.47615869    -0.07500
C986        C  0.76640373  0.07827342  0.49310702    -0.08300
C987        C  0.77297319  0.09925498  0.01582107    -0.02800
C988        C  0.75044007  0.13090539  0.01926128     0.04000
N989        N  0.75736604  0.15806051  0.04145012     0.66500
H990        H  0.70106916  0.15835959  0.00590218     0.15400
H991        H  0.78365826  0.05428292  0.48960060     0.15100
N992        N  0.72633643  0.05415114  0.45482997     0.74200
O993        O  0.76100493  0.19124618  0.03417734    -0.39200
O994        O  0.74958981  0.15080232  0.06770790    -0.39200
O995        O  0.74072746  0.05591801  0.42973270    -0.39900
O996        O  0.71202634  0.02435145  0.46292798    -0.39900
C997        C  0.91088765  0.06736449  0.44239636    -0.12200
C998        C  0.92609265  0.09196415  0.46297426     0.04800
C999        C  0.94232443  0.12477089  0.45306777    -0.07500
C1000       C  0.94119638  0.13322195  0.42330023    -0.08300
C1001       C  0.92492501  0.10917110  0.40290741    -0.02800
C1002       C  0.91056016  0.07544939  0.41254773     0.04000
N1003       N  0.89341941  0.05021974  0.39268313     0.66500
H1004       H  0.89830513  0.04201777  0.44959237     0.15400
H1005       H  0.95289833  0.15899013  0.41610313     0.15100
N1006       N  0.95787250  0.15095959  0.47299433     0.74200
O1007       O  0.91156281  0.02317839  0.38279041    -0.39200
O1008       O  0.85889102  0.05013175  0.39053048    -0.39200
O1009       O  0.99204664  0.15057015  0.47748765    -0.39900
O1010       O  0.93947418  0.17909670  0.48021494    -0.39900
C1011       C  0.91540012  0.09703186  0.17292383    -0.12200
C1012       C  0.93517652  0.11812948  0.15283795     0.04800
C1013       C  0.96546384  0.13888821  0.16249438    -0.07500
C1014       C  0.97439666  0.13937500  0.19224426    -0.08300
C1015       C  0.95373719  0.11924616  0.21263975    -0.02800
C1016       C  0.92440589  0.09728110  0.20257553     0.04000
N1017       N  0.90163207  0.07732949  0.22230543     0.66500
H1018       H  0.89230483  0.08058860  0.16560600     0.15400
H1019       H  0.99682559  0.15670438  0.19953395     0.15100
N1020       N  0.98555654  0.16177602  0.14290699     0.74200
O1021       O  0.90854088  0.04387889  0.22707877    -0.39200
O1022       O  0.87072980  0.09039094  0.22948211    -0.39200
O1023       O  0.97531482  0.19461247  0.13921941    -0.39900
O1024       O  0.01724443  0.15205668  0.13466011    -0.39900
Fe1025     Fe  0.94436062  0.10475405  0.55844270     1.65800
Fe1026     Fe  0.85757649  0.12162222  0.58155968     1.73200
Fe1027     Fe  0.87548494  0.04590298  0.54042952     1.54400
O1028       O  0.88991182  0.06216854  0.00184757    -0.81600
O1029       O  0.82961633  0.07552174  0.59698064    -0.79900
O1030       O  0.94346463  0.08959229  0.01311836    -0.84100
O1031       O  0.95858341  0.05278574  0.56894823    -0.79000
O1032       O  0.82266633  0.06639071  0.53344122    -0.80800
O1033       O  0.88950667  0.11934872  0.61846436    -0.83500
C1034       C  0.95865410  0.02955273  0.54856151     0.97300
C1035       C  0.91933438  0.07862681  0.99470864     1.04700
O1036       O  0.89257267  0.09113235  0.56016654    -1.12500
O1037       O  0.88009681  0.17145670  0.56801846    -0.74900
O1038       O  0.93453325  0.15809854  0.54857700    -0.78400
O1039       O  0.92772142  0.01860328  0.53881910    -0.79100
C1040       C  0.90880856  0.18049160  0.55396586     0.96200
O1041       O  0.94758903  0.11586341  0.60282791    -0.77100
O1042       O  0.82339951  0.12538723  0.54612315    -0.82300
C1043       C  0.83269921  0.04047923  0.59670209     0.98800
C1044       C  0.80907113  0.09867055  0.53240997     1.04700
O1045       O  0.85580908  0.02347074  0.57996334    -0.77900
C1046       C  0.92381825  0.11745138  0.62319439     1.03000
Fe1047     Fe  0.59436007  0.07781439  0.71330342     1.65800
Fe1048     Fe  0.67884905  0.10546498  0.69340730     1.73200
Fe1049     Fe  0.66967039  0.02634141  0.73053344     1.54400
O1050       O  0.65006680  0.04446662  0.77002969    -0.81600
O1051       O  0.71457660  0.06472713  0.67821499    -0.79900
O1052       O  0.59473318  0.06791616  0.75855511    -0.84100
O1053       O  0.58869958  0.02490849  0.70129566    -0.79000
O1054       O  0.71881925  0.05335499  0.73978462    -0.80800
O1055       O  0.64985434  0.10003555  0.65537556    -0.83500
C1056       C  0.58969213  0.00337858  0.72232707     0.97300
C1057       C  0.61928693  0.05865863  0.77715998     1.04700
O1058       O  0.64736259  0.07025407  0.71244582    -1.12500
O1059       O  0.64845590  0.15121100  0.70612716    -0.74900
O1060       O  0.59573776  0.13154882  0.72445203    -0.78400
O1061       O  0.62142578  0.99240813  0.73008401    -0.79100
C1062       C  0.61799601  0.15692715  0.71893476     0.96200
O1063       O  0.59169354  0.08988979  0.66926182    -0.77100
O1064       O  0.70906589  0.11235132  0.73078312    -0.82300
C1065       C  0.71629641  0.02974662  0.67632769     0.98800
C1066       C  0.72715798  0.08714974  0.74315950     1.04700
O1067       O  0.69382503  0.00887317  0.69031989    -0.77900
C1068       C  0.61601111  0.09548070  0.64979757     1.03000
Fe1069     Fe  0.09683520  0.94001498  0.96608577     1.65800
Fe1070     Fe  0.18071542  0.91517045  0.94184006     1.73200
Fe1071     Fe  0.17492956  0.99030533  0.48472162     1.54400
O1072       O  0.12700589  0.02469312  0.48896331    -0.81600
O1073       O  0.21444121  0.90883145  0.97707516    -0.79900
O1074       O  0.08967025  0.99322210  0.95574709    -0.84100
O1075       O  0.10095543  0.94952608  0.51193926    -0.79000
O1076       O  0.19276374  0.01264357  0.94277298    -0.80800
O1077       O  0.15387662  0.86756121  0.95569595    -0.83500
C1078       C  0.12655785  0.95581702  0.53043025     0.97300
C1079       C  0.09075735  0.01520186  0.97688830     1.04700
O1080       O  0.14955241  0.94889316  0.96381821    -1.12500
O1081       O  0.14831768  0.91999082  0.90534918    -0.74900
O1082       O  0.09129856  0.92948886  0.92226842    -0.78400
O1083       O  0.15782492  0.96849595  0.52342727    -0.79100
C1084       C  0.11412426  0.92483079  0.90164538     0.96200
O1085       O  0.10059508  0.88534896  0.97508532    -0.77100
O1086       O  0.21258253  0.95803664  0.92542728    -0.82300
C1087       C  0.23110966  0.92744679  0.48975593     0.98800
C1088       C  0.21305068  0.99317849  0.92531966     1.04700
O1089       O  0.22400200  0.96172236  0.49000480    -0.77900
C1090       C  0.12403578  0.86069399  0.96904319     1.03000
Fe1091     Fe  0.44282087  0.92096940  0.81207062     1.65800
Fe1092     Fe  0.35421107  0.90958522  0.83176989     1.73200
Fe1093     Fe  0.37789169  0.98509963  0.79368443     1.54400
O1094       O  0.43112877  0.00972921  0.79467100    -0.81600
O1095       O  0.32360256  0.90867058  0.79428515    -0.79900
O1096       O  0.46116171  0.97196950  0.82212663    -0.84100
O1097       O  0.44518430  0.92937242  0.76683380    -0.79000
O1098       O  0.35650148  0.00818699  0.83319323    -0.80800
O1099       O  0.37410728  0.85797506  0.81871552    -0.83500
C1100       C  0.42234226  0.94217408  0.74826499     0.97300
C1101       C  0.46162447  0.99510598  0.80199636     1.04700
O1102       O  0.39199235  0.93850446  0.81282085    -1.12500
O1103       O  0.38340513  0.90899074  0.87019475    -0.74900
O1104       O  0.44257807  0.91066567  0.85660575    -0.78400
O1105       O  0.39476059  0.96217226  0.75488152    -0.79100
C1106       C  0.41751906  0.90880896  0.87604066     0.96200
O1107       O  0.43036541  0.86780990  0.80221210    -0.77100
O1108       O  0.32765262  0.95679179  0.84693683    -0.82300
C1109       C  0.31093040  0.93583310  0.78035567     0.98800
C1110       C  0.33137072  0.99167668  0.84797831     1.04700
O1111       O  0.32453187  0.96783964  0.78344067    -0.77900
C1112       C  0.40351668  0.84672653  0.80663685     1.03000
Fe1113     Fe  0.41963444  0.91794220  0.56230300     1.65800
Fe1114     Fe  0.40886267  0.83392357  0.58704683     1.73200
Fe1115     Fe  0.48487657  0.85366990  0.54640866     1.54400
O1116       O  0.46907601  0.86214974  0.00557713    -0.81600
O1117       O  0.45314711  0.81264218  0.60911655    -0.79900
O1118       O  0.44779031  0.91900382  0.01565218    -0.84100
O1119       O  0.46715114  0.94156324  0.55139878    -0.79000
O1120       O  0.46263134  0.80488344  0.53071545    -0.80800
O1121       O  0.40337053  0.87299776  0.62038397    -0.83500
C1122       C  0.50089509  0.93541662  0.54947341     0.97300
C1123       C  0.45589075  0.89283925  0.99761879     1.04700
O1124       O  0.43920782  0.86832824  0.56588891    -1.12500
O1125       O  0.36206360  0.84849719  0.56443825    -0.74900
O1126       O  0.36583689  0.90725379  0.57266577    -0.78400
O1127       O  0.51413660  0.90345212  0.55481093    -0.79100
C1128       C  0.34842780  0.88016219  0.56294713     0.96200
O1129       O  0.42954391  0.92575392  0.60620180    -0.77100
O1130       O  0.41181439  0.79361154  0.55596716    -0.82300
C1131       C  0.48757678  0.80945320  0.60513041     0.98800
C1132       C  0.43356349  0.78656720  0.53514118     1.04700
O1133       O  0.50476836  0.82550405  0.58411754    -0.77900
C1134       C  0.41814815  0.90421712  0.62613623     1.03000
Fe1135     Fe  0.42047228  0.57528322  0.71461196     1.65800
Fe1136     Fe  0.40464661  0.66309839  0.69444796     1.73200
Fe1137     Fe  0.48111503  0.64359654  0.73297939     1.54400
O1138       O  0.45985704  0.62686879  0.77195467    -0.81600
O1139       O  0.45019696  0.69128324  0.67881663    -0.79900
O1140       O  0.42954714  0.57498226  0.75985774    -0.84100
O1141       O  0.47242158  0.56023441  0.70446860    -0.79000
O1142       O  0.46134166  0.69644075  0.74241776    -0.80800
O1143       O  0.40500260  0.63200922  0.65658433    -0.83500
C1144       C  0.49513190  0.56040648  0.72498525     0.97300
C1145       C  0.44171254  0.59827511  0.77868709     1.04700
O1146       O  0.43518643  0.62704924  0.71388828    -1.12500
O1147       O  0.35512833  0.64141019  0.70832790    -0.74900
O1148       O  0.36645958  0.58498975  0.72429725    -0.78400
O1149       O  0.50832672  0.59139934  0.73285474    -0.79100
C1150       C  0.34506052  0.61189678  0.72043997     0.96200
O1151       O  0.41028222  0.57330657  0.67008997    -0.77100
O1152       O  0.40229477  0.69561607  0.73138291    -0.82300
C1153       C  0.48510687  0.68862701  0.67820073     0.98800
C1154       C  0.42903410  0.70931881  0.74534805     1.04700
O1155       O  0.50258638  0.66452971  0.69334770    -0.77900
C1156       C  0.40703472  0.59777377  0.65052698     1.03000
Fe1157     Fe  0.59533406  0.07215297  0.96332928     1.65800
Fe1158     Fe  0.61131925  0.16019838  0.94362327     1.73200
Fe1159     Fe  0.53836392  0.14508184  0.48129175     1.54400
O1160       O  0.51212211  0.09319039  0.48388052    -0.81600
O1161       O  0.61196640  0.19338686  0.98019965    -0.79900
O1162       O  0.54358172  0.05731284  0.95272606    -0.84100
O1163       O  0.59330641  0.07890842  0.50930844    -0.79000
O1164       O  0.51345644  0.16236998  0.94145143    -0.80800
O1165       O  0.66021772  0.13851693  0.95891876    -0.83500
C1166       C  0.58112445  0.10301359  0.52756332     0.97300
C1167       C  0.52047479  0.05752102  0.97307923     1.04700
O1168       O  0.58040569  0.12413711  0.96260773    -1.12500
O1169       O  0.61286638  0.12897675  0.90577404    -0.74900
O1170       O  0.60687955  0.07018923  0.91911072    -0.78400
O1171       O  0.56184743  0.13080484  0.52021379    -0.79100
C1172       C  0.61106144  0.09475056  0.89979500     0.96200
O1173       O  0.64902522  0.08160836  0.97369942    -0.77100
O1174       O  0.56625751  0.18794294  0.92655219    -0.82300
C1175       C  0.58793687  0.21155744  0.49152254     0.98800
C1176       C  0.53139512  0.18534553  0.92551184     1.04700
O1177       O  0.55596315  0.19862767  0.48827670    -0.77900
C1178       C  0.67024601  0.10869313  0.97068553     1.03000
Fe1179     Fe  0.57756050  0.42390062  0.80977068     1.65800
Fe1180     Fe  0.60372794  0.33915404  0.83083774     1.73200
Fe1181     Fe  0.52524054  0.34969415  0.79253952     1.54400
O1182       O  0.49229069  0.39880591  0.79289826    -0.81600
O1183       O  0.61075295  0.30864643  0.79332985    -0.79900
O1184       O  0.52503148  0.43207695  0.82191846    -0.84100
O1185       O  0.56669543  0.42377635  0.76440265    -0.79000
O1186       O  0.50690738  0.32603509  0.83231601    -0.80800
O1187       O  0.65093832  0.36860385  0.81908293    -0.83500
C1188       C  0.55729820  0.39901433  0.74568221     0.97300
C1189       C  0.50244718  0.43070099  0.80144241     1.04700
O1190       O  0.56916436  0.37114528  0.81109060    -1.12500
O1191       O  0.59745195  0.36891306  0.86898215    -0.74900
O1192       O  0.58976890  0.42692288  0.85391085    -0.78400
O1193       O  0.54375160  0.36826132  0.75314854    -0.79100
C1194       C  0.59328023  0.40316133  0.87402869     0.96200
O1195       O  0.63102227  0.41987210  0.79858391    -0.77100
O1196       O  0.56199883  0.30376325  0.84502554    -0.82300
C1197       C  0.58534922  0.29163727  0.78005339     0.98800
C1198       C  0.52696352  0.30268330  0.84620805     1.04700
O1199       O  0.55172316  0.30021048  0.78359458    -0.77900
C1200       C  0.65672257  0.39822893  0.80524742     1.03000
Fe1201     Fe  0.09750956  0.94248999  0.71677220     1.65800
Fe1202     Fe  0.11496924  0.85525371  0.69479816     1.73200
Fe1203     Fe  0.03912252  0.87340945  0.73449054     1.54400
O1204       O  0.06140886  0.88905443  0.77290280    -0.81600
O1205       O  0.06873160  0.82667084  0.67982116    -0.79900
O1206       O  0.08770453  0.94309458  0.76221212    -0.84100
O1207       O  0.04516508  0.95526118  0.70646105    -0.79000
O1208       O  0.05947669  0.82041779  0.74142441    -0.80800
O1209       O  0.11305940  0.88569319  0.65731904    -0.83500
C1210       C  0.02306975  0.95564251  0.72747188     0.97300
C1211       C  0.07705454  0.91883149  0.78052967     1.04700
O1212       O  0.08435659  0.89064992  0.71531625    -1.12500
O1213       O  0.16476031  0.87884541  0.70772746    -0.74900
O1214       O  0.15141023  0.93399051  0.72643760    -0.78400
O1215       O  0.01123518  0.92488078  0.73633215    -0.79100
C1216       C  0.17408741  0.90853397  0.72070189     0.96200
O1217       O  0.10861942  0.94440514  0.67225482    -0.77100
O1218       O  0.11876553  0.82290349  0.73106667    -0.82300
C1219       C  0.03385925  0.83085281  0.67932220     0.98800
C1220       C  0.09196457  0.80782645  0.74374847     1.04700
O1221       O  0.01707957  0.85496293  0.69504869    -0.77900
C1222       C  0.11173529  0.91996963  0.65219293     1.03000
Fe1223     Fe  0.06789591  0.59930372  0.55939718     1.65800
Fe1224     Fe  0.09839799  0.68336644  0.57859184     1.73200
Fe1225     Fe  0.01841576  0.67567374  0.54188186     1.54400
O1226       O  0.04130697  0.65225213  0.00261059    -0.81600
O1227       O  0.05767848  0.71862101  0.59482854    -0.79900
O1228       O  0.06220890  0.59590400  0.01407962    -0.84100
O1229       O  0.01481878  0.59625829  0.57141659    -0.79000
O1230       O  0.04553240  0.72490216  0.53270782    -0.80800
O1231       O  0.09520096  0.65427336  0.61709528    -0.83500
C1232       C  0.99276469  0.59706919  0.55057272     0.97300
C1233       C  0.05452555  0.62097963  0.99538823     1.04700
O1234       O  0.06206545  0.65247610  0.55994419    -1.12500
O1235       O  0.14338143  0.65275960  0.56402941    -0.74900
O1236       O  0.12253443  0.59878503  0.54828701    -0.78400
O1237       O  0.98333096  0.62866523  0.54171952    -0.79100
C1238       C  0.14843478  0.62152453  0.55184203     0.96200
O1239       O  0.07895473  0.59700374  0.60393564    -0.77100
O1240       O  0.10416337  0.71361180  0.54116534    -0.82300
C1241       C  0.02269509  0.71992198  0.59672737     0.98800
C1242       C  0.07931472  0.73164697  0.52825230     1.04700
O1243       O  0.00160501  0.69854404  0.58189186    -0.77900
C1244       C  0.08768309  0.62103765  0.62317766     1.03000
Fe1245     Fe  0.94204354  0.09405055  0.80890711     1.65800
Fe1246     Fe  0.91440057  0.17890589  0.82961693     1.73200
Fe1247     Fe  0.99357774  0.16948596  0.79182493     1.54400
O1248       O  0.02740942  0.12125388  0.79136021    -0.81600
O1249       O  0.90867361  0.21122136  0.79304953    -0.79900
O1250       O  0.99497937  0.08952826  0.82091290    -0.84100
O1251       O  0.95221078  0.09454349  0.76357850    -0.79000
O1252       O  0.01137994  0.19264768  0.83202699    -0.80800
O1253       O  0.86887036  0.14984226  0.81521403    -0.83500
C1254       C  0.96116700  0.11938858  0.74518483     0.97300
C1255       C  0.01732953  0.08987949  0.80023666     1.04700
O1256       O  0.94944247  0.14728457  0.80995843    -1.12500
O1257       O  0.91816721  0.14828763  0.86712327    -0.74900
O1258       O  0.93049827  0.09053118  0.85291074    -0.78400
O1259       O  0.97514310  0.15021758  0.75249469    -0.79100
C1260       C  0.92393241  0.11449279  0.87266019     0.96200
O1261       O  0.88758395  0.09520980  0.79850046    -0.77100
O1262       O  0.95570451  0.21292068  0.84590927    -0.82300
C1263       C  0.93406218  0.22876195  0.78030948     0.98800
C1264       C  0.99067468  0.21474175  0.84690498     1.04700
O1265       O  0.96754800  0.21953427  0.78324942    -0.77900
C1266       C  0.86270692  0.11891059  0.80301877     1.03000
Fe1267     Fe  0.92143508  0.44705718  0.96388138     1.65800
Fe1268     Fe  0.90274621  0.36080899  0.94071354     1.73200
Fe1269     Fe  0.97681019  0.38109661  0.47900667     1.54400
O1270       O  0.00698897  0.42845592  0.98405929    -0.81600
O1271       O  0.90219753  0.32604418  0.97590010    -0.79900
O1272       O  0.97394956  0.45933256  0.95419270    -0.84100
O1273       O  0.92323508  0.44713117  0.50913768    -0.79000
O1274       O  0.00113815  0.36018733  0.93780131    -0.80800
O1275       O  0.85433870  0.38269965  0.95753247    -0.83500
C1276       C  0.93426509  0.42178970  0.52659490     0.97300
C1277       C  0.99549981  0.45946718  0.97537881     1.04700
O1278       O  0.93429087  0.39511819  0.96096385    -1.12500
O1279       O  0.90065585  0.39369998  0.90449130    -0.74900
O1280       O  0.91242234  0.45142823  0.91946958    -0.78400
O1281       O  0.95324521  0.39389366  0.51849744    -0.79100
C1282       C  0.90555590  0.42769428  0.89960048     0.96200
O1283       O  0.86661258  0.43984378  0.97239347    -0.77100
O1284       O  0.94831478  0.33459127  0.92204795    -0.82300
C1285       C  0.92873926  0.31399435  0.48872985     0.98800
C1286       C  0.98323750  0.33797171  0.92082755     1.04700
O1287       O  0.96040004  0.32690332  0.48403774    -0.77900
C1288       C  0.84477110  0.41315048  0.96915036     1.03000
Fe1289     Fe  0.92058370  0.44343576  0.71375822     1.65800
Fe1290     Fe  0.83614843  0.41655696  0.69311720     1.73200
Fe1291     Fe  0.84643421  0.49665293  0.73052528     1.54400
O1292       O  0.86295099  0.47699014  0.76998429    -0.81600
O1293       O  0.80470865  0.45911433  0.67542452    -0.79900
O1294       O  0.91880668  0.45296909  0.75966367    -0.84100
O1295       O  0.92750763  0.49639417  0.70298552    -0.79000
O1296       O  0.79515885  0.47291155  0.73749553    -0.80800
O1297       O  0.86710671  0.41760020  0.65555951    -0.83500
C1298       C  0.92725963  0.51811854  0.72422590     0.97300
C1299       C  0.89306595  0.46204799  0.77768280     1.04700
O1300       O  0.86793866  0.45171180  0.71247540    -1.12500
O1301       O  0.86293245  0.36980175  0.70886849    -0.74900
O1302       O  0.91789359  0.38860326  0.72336760    -0.78400
O1303       O  0.89589675  0.52863053  0.73322982    -0.79100
C1304       C  0.89397735  0.36362913  0.72054496     0.96200
O1305       O  0.92395850  0.43392213  0.66896940    -0.77100
O1306       O  0.80375294  0.41345931  0.72949487    -0.82300
C1307       C  0.80509927  0.49420849  0.67354734     0.98800
C1308       C  0.78643567  0.43958983  0.74175364     1.04700
O1309       O  0.82618853  0.51454802  0.68961938    -0.77900
C1310       C  0.90014137  0.42578987  0.64960348     1.03000
Fe1311     Fe  0.57242402  0.42384312  0.55790331     1.65800
Fe1312     Fe  0.65859260  0.40878444  0.58170939     1.73200
Fe1313     Fe  0.64019809  0.48546319  0.54240138     1.54400
O1314       O  0.62672667  0.46544410  0.00235460    -0.81600
O1315       O  0.68612031  0.45448137  0.59809009    -0.79900
O1316       O  0.57363082  0.43690778  0.01269713    -0.84100
O1317       O  0.55749371  0.47525591  0.56985557    -0.79000
O1318       O  0.69310218  0.46557687  0.53437392    -0.80800
O1319       O  0.62627775  0.40981155  0.61860125    -0.83500
C1320       C  0.55693221  0.49829550  0.54972246     0.97300
C1321       C  0.59760245  0.44891416  0.99458858     1.04700
O1322       O  0.62366360  0.43905433  0.56063721    -1.12500
O1323       O  0.63731630  0.35869800  0.56717546    -0.74900
O1324       O  0.58361767  0.37097948  0.54637051    -0.78400
O1325       O  0.58753224  0.51212294  0.54196859    -0.79100
C1326       C  0.60937973  0.34907556  0.55240085     0.96200
O1327       O  0.56844905  0.41078271  0.60208758    -0.77100
O1328       O  0.69268869  0.40643571  0.54624622    -0.82300
C1329       C  0.68383173  0.48947469  0.59850207     0.98800
C1330       C  0.70680209  0.43333536  0.53298871     1.04700
O1331       O  0.66008551  0.50690644  0.58290202    -0.77900
C1332       C  0.59180450  0.40930355  0.62276682     1.03000
Fe1333     Fe  0.07470925  0.59733241  0.80813510     1.65800
Fe1334     Fe  0.16018514  0.61344835  0.83390337     1.73200
Fe1335     Fe  0.14501250  0.53916226  0.79073247     1.54400
O1336       O  0.09293106  0.51203933  0.78668195    -0.81600
O1337       O  0.19580127  0.61799168  0.79917837    -0.79900
O1338       O  0.06157693  0.54485651  0.81741878    -0.84100
O1339       O  0.07657453  0.58870325  0.76244021    -0.79000
O1340       O  0.16287779  0.51549763  0.83059853    -0.80800
O1341       O  0.13787935  0.66324599  0.82069189    -0.83500
C1342       C  0.10225737  0.58015852  0.74436669     0.97300
C1343       C  0.06178838  0.52316205  0.79601318     1.04700
O1344       O  0.12652649  0.58372955  0.81100054    -1.12500
O1345       O  0.12662295  0.61061481  0.87002370    -0.74900
O1346       O  0.06930002  0.60777384  0.85248953    -0.78400
O1347       O  0.13159472  0.56358263  0.75185751    -0.79100
C1348       C  0.09204855  0.60960555  0.87349912     0.96200
O1349       O  0.08394260  0.65133916  0.79974267    -0.77100
O1350       O  0.18748441  0.56724919  0.84934556    -0.82300
C1351       C  0.21090669  0.59183974  0.78509956     0.98800
C1352       C  0.18484519  0.53227023  0.84841269     1.04700
O1353       O  0.19812989  0.55933827  0.78576603    -0.77900
C1354       C  0.10951726  0.67310863  0.80661954     1.03000
Fe1355     Fe  0.42008426  0.57989511  0.96455122     1.65800
Fe1356     Fe  0.33570222  0.60482870  0.94183093     1.73200
Fe1357     Fe  0.34590013  0.52734153  0.48272940     1.54400
O1358       O  0.39374999  0.49271059  0.48343294    -0.81600
O1359       O  0.30198471  0.61000187  0.97761327    -0.79900
O1360       O  0.42812191  0.52661378  0.95386602    -0.84100
O1361       O  0.42097810  0.56980818  0.50889517    -0.79000
O1362       O  0.32646409  0.50665012  0.93937138    -0.80800
O1363       O  0.36198136  0.65211772  0.95717914    -0.83500
C1364       C  0.39673476  0.56125662  0.52796732     0.97300
C1365       C  0.42695185  0.50527105  0.97509601     1.04700
O1366       O  0.36744167  0.57088438  0.96211717    -1.12500
O1367       O  0.36799874  0.60211802  0.90515432    -0.74900
O1368       O  0.42524655  0.59056953  0.92037093    -0.78400
O1369       O  0.36578066  0.54692840  0.52176381    -0.79100
C1370       C  0.40199247  0.59691478  0.90028123     0.96200
O1371       O  0.41614259  0.63436411  0.97448135    -0.77100
O1372       O  0.30466201  0.56127221  0.92445768    -0.82300
C1373       C  0.28664203  0.58795745  0.49330122     0.98800
C1374       C  0.30480308  0.52604304  0.92337011     1.04700
O1375       O  0.29630520  0.55434279  0.49121912    -0.77900
C1376       C  0.39227419  0.65886392  0.96990078     1.03000
C1377       C  0.24633046  0.50401557  0.85674039    -0.12200
C1378       C  0.21128258  0.51262472  0.86801986     0.04800
C1379       C  0.20777398  0.51581038  0.89877603    -0.07500
C1380       C  0.23886325  0.51355964  0.91700062    -0.08300
C1381       C  0.27443654  0.50930030  0.90550498    -0.02800
C1382       C  0.27771734  0.50246439  0.87504156     0.04000
N1383       N  0.31293918  0.49670865  0.86197577     0.66500
H1384       H  0.25005327  0.50220211  0.83321380     0.15400
H1385       H  0.23555766  0.51979130  0.94014122     0.15100
N1386       N  0.17384879  0.52714096  0.91164418     0.74200
O1387       O  0.32889183  0.46616620  0.86529011    -0.39200
O1388       O  0.32343475  0.51766810  0.84179725    -0.39200
O1389       O  0.15237179  0.50303641  0.92148154    -0.39900
O1390       O  0.17043724  0.56008473  0.92025498    -0.39900
C1391       C  0.48908577  0.52806610  0.99117020    -0.12200
C1392       C  0.45945885  0.49905952  0.49322652     0.04800
C1393       C  0.46341985  0.47344084  0.51602110    -0.07500
C1394       C  0.49438291  0.47483592  0.53463360    -0.08300
C1395       C  0.52244175  0.50145935  0.53139845    -0.02800
C1396       C  0.51959109  0.52947662  0.01015222     0.04000
N1397       N  0.54514634  0.55892002  0.00723208     0.66500
H1398       H  0.48709694  0.54883274  0.97439095     0.15400
H1399       H  0.49684362  0.45402141  0.55133363     0.15100
N1400       N  0.43727663  0.44464937  0.51977243     0.74200
O1401       O  0.57001852  0.55685523  0.98805768    -0.39200
O1402       O  0.53818456  0.58956589  0.01928234    -0.39200
O1403       O  0.44263743  0.41395799  0.50727062    -0.39900
O1404       O  0.41375840  0.44716374  0.54001057    -0.39900
C1405       C  0.99296826  0.50031419  0.73439618    -0.12200
C1406       C  0.96204271  0.52204611  0.74216458     0.04800
C1407       C  0.96409030  0.54246928  0.76858800    -0.07500
C1408       C  0.99576189  0.54048414  0.78633871    -0.08300
C1409       C  0.02674613  0.51885263  0.77849279    -0.02800
C1410       C  0.02470817  0.49851786  0.75202545     0.04000
N1411       N  0.05442907  0.47552175  0.74265755     0.66500
H1412       H  0.99243150  0.48369495  0.71456915     0.15400
H1413       H  0.99639374  0.55723385  0.80609392     0.15100
N1414       N  0.93487466  0.56645851  0.77736859     0.74200
O1415       O  0.05474095  0.44205061  0.74975377    -0.39200
O1416       O  0.07564127  0.48640075  0.72268596    -0.39200
O1417       O  0.91504365  0.55814020  0.79897635    -0.39900
O1418       O  0.93398651  0.59887543  0.76773456    -0.39900
C1419       C  0.74228379  0.51880491  0.66352649    -0.12200
C1420       C  0.77744949  0.50980182  0.65271198     0.04800
C1421       C  0.78098105  0.50337262  0.62227243    -0.07500
C1422       C  0.74976628  0.50334912  0.60402563    -0.08300
C1423       C  0.71404066  0.50814504  0.61534230    -0.02800
C1424       C  0.71076428  0.51754941  0.64537055     0.04000
N1425       N  0.67546740  0.52157544  0.65860219     0.66500
H1426       H  0.73864238  0.52294608  0.68684748     0.15400
H1427       H  0.75315338  0.49507742  0.58128991     0.15100
N1428       N  0.81548880  0.49251365  0.60998738     0.74200
O1429       O  0.66350195  0.49609720  0.67450217    -0.39200
O1430       O  0.66153874  0.55329724  0.66100350    -0.39200
O1431       O  0.82285637  0.45871209  0.60708752    -0.39900
O1432       O  0.83395889  0.51569635  0.59587147    -0.39900
C1433       C  0.79552538  0.39197195  0.50403090    -0.12200
C1434       C  0.80779225  0.41664154  0.98200038     0.04800
C1435       C  0.78497719  0.44733989  0.97701910    -0.07500
C1436       C  0.75264517  0.45202273  0.99340405    -0.08300
C1437       C  0.74029041  0.42697467  0.51536788    -0.02800
C1438       C  0.76476219  0.39786871  0.52165947     0.04000
N1439       N  0.76098284  0.37640504  0.54751683     0.66500
H1440       H  0.81458972  0.37021725  0.50964900     0.15400
H1441       H  0.73519346  0.47552568  0.98900468     0.15100
N1442       N  0.79388503  0.47356380  0.95504419     0.74200
O1443       O  0.75328898  0.34270378  0.54517131    -0.39200
O1444       O  0.77416668  0.38846896  0.57127849    -0.39200
O1445       O  0.78042098  0.46991083  0.92973323    -0.39900
O1446       O  0.80803054  0.50389741  0.96248513    -0.39900
C1447       C  0.90310919  0.39389919  0.60206056    -0.12200
C1448       C  0.91063665  0.42550426  0.61855861     0.04800
C1449       C  0.92481284  0.45690099  0.60455468    -0.07500
C1450       C  0.93125118  0.45600154  0.57422035    -0.08300
C1451       C  0.92441593  0.42388327  0.55785833    -0.02800
C1452       C  0.91020311  0.39267161  0.57209072     0.04000
N1453       N  0.90251110  0.35941897  0.55639098     0.66500
H1454       H  0.89166533  0.36986950  0.61256121     0.15400
H1455       H  0.94227842  0.48009881  0.56357120     0.15100
N1456       N  0.93185706  0.49004729  0.62065203     0.74200
O1457       O  0.92296034  0.33183004  0.56026863    -0.39200
O1458       O  0.87103679  0.35483277  0.54547347    -0.39200
O1459       O  0.96450936  0.49863440  0.62675785    -0.39900
O1460       O  0.90677237  0.51383625  0.62350299    -0.39900
C1461       C  0.87059494  0.43082649  0.85410155    -0.12200
C1462       C  0.90265047  0.43953465  0.86921672     0.04800
C1463       C  0.93215762  0.45617612  0.85441965    -0.07500
C1464       C  0.92933933  0.46298490  0.82426581    -0.08300
C1465       C  0.89701709  0.45399747  0.80906525    -0.02800
C1466       C  0.86738963  0.43818745  0.82441554     0.04000
N1467       N  0.83421221  0.42798755  0.80990340     0.66500
H1468       H  0.84796704  0.41775600  0.86538518     0.15400
H1469       H  0.95214562  0.47543001  0.81281163     0.15100
N1470       N  0.96539164  0.46496431  0.86953855     0.74200
O1471       O  0.83111079  0.39576822  0.79966240    -0.39200
O1472       O  0.80580170  0.44738758  0.81381047    -0.39200
O1473       O  0.98760000  0.43967370  0.87616068    -0.39900
O1474       O  0.96990381  0.49691881  0.87997637    -0.39900
C1475       C  0.01456331  0.27801401  0.91088142    -0.12200
C1476       C  0.00172497  0.31185938  0.89996813     0.04800
C1477       C  0.99417613  0.31388686  0.86969558    -0.07500
C1478       C  0.99621458  0.28211846  0.85187167    -0.08300
C1479       C  0.00522236  0.24745898  0.86334003    -0.02800
C1480       C  0.01616404  0.24596701  0.89296658     0.04000
N1481       N  0.02529514  0.21158505  0.90596578     0.66500
H1482       H  0.01959750  0.27544263  0.93414271     0.15400
H1483       H  0.98668703  0.28386316  0.82947704     0.15100
N1484       N  0.98033230  0.34710504  0.85728723     0.74200
O1485       O  0.05850088  0.20174269  0.90715091    -0.39200
O1486       O  0.00188354  0.19548288  0.92163218    -0.39200
O1487       O  0.00158647  0.36694152  0.84241906    -0.39900
O1488       O  0.94609331  0.35176835  0.85518091    -0.39900
C1489       C  0.88713480  0.26936783  0.75666577    -0.12200
C1490       C  0.92432997  0.26151103  0.76232846     0.04800
C1491       C  0.95119108  0.28582050  0.75128529    -0.07500
C1492       C  0.94047520  0.31778575  0.73669920    -0.08300
C1493       C  0.90328356  0.32654746  0.73224740    -0.02800
C1494       C  0.87647475  0.30122038  0.74166599     0.04000
N1495       N  0.83821693  0.30812234  0.73759692     0.66500
H1496       H  0.86590564  0.25098372  0.76434060     0.15400
H1497       H  0.96170968  0.33633875  0.72927593     0.15100
N1498       N  0.98956774  0.27924563  0.75522234     0.74200
O1499       O  0.82239225  0.29522339  0.71518612    -0.39200
O1500       O  0.81913082  0.31905668  0.75907326    -0.39200
O1501       O  0.00757000  0.26339006  0.73508579    -0.39900
O1502       O  0.00654737  0.29623887  0.77524551    -0.39900
C1503       C  0.21012118  0.64064756  0.53348616    -0.12200
C1504       C  0.18545637  0.61211037  0.53990348     0.04800
C1505       C  0.19551461  0.57560666  0.53222326    -0.07500
C1506       C  0.22857606  0.56872244  0.51748390    -0.08300
C1507       C  0.25268700  0.59731145  0.51013598    -0.02800
C1508       C  0.24330537  0.63369862  0.51872685     0.04000
N1509       N  0.26682903  0.66406390  0.51251908     0.66500
H1510       H  0.20313080  0.66888130  0.53904449     0.15400
H1511       H  0.23515855  0.54051226  0.51154068     0.15100
N1512       N  0.17291315  0.54492522  0.53956541     0.74200
O1513       O  0.25593615  0.67442090  0.98142002    -0.39200
O1514       O  0.28637902  0.67760370  0.53269664    -0.39200
O1515       O  0.15949545  0.52522693  0.51935967    -0.39900
O1516       O  0.17378879  0.53263120  0.56529729    -0.39900
C1517       C  0.00726728  0.53053937  0.54045402    -0.12200
C1518       C  0.98787740  0.56256420  0.53226138     0.04800
C1519       C  0.97741501  0.55820378  0.00189096    -0.07500
C1520       C  0.98075577  0.52646900  0.98399176    -0.08300
C1521       C  0.99188038  0.49858806  0.49464658    -0.02800
C1522       C  0.00976720  0.49927475  0.52208051     0.04000
N1523       N  0.03157657  0.46890641  0.53148273     0.66500
H1524       H  0.02201325  0.53002362  0.56103601     0.15400
H1525       H  0.96782049  0.52679719  0.96264471     0.15100
N1526       N  0.95772355  0.58914395  0.99084750     0.74200
O1527       O  0.01888603  0.44712761  0.55028042    -0.39200
O1528       O  0.06555618  0.46867658  0.52605818    -0.39200
O1529       O  0.97134931  0.60763695  0.97029945    -0.39900
O1530       O  0.92402935  0.59260322  0.99674371    -0.39900
C1531       C  0.04949756  0.64229419  0.94406919    -0.12200
C1532       C  0.06110681  0.61477614  0.96363240     0.04800
C1533       C  0.08011350  0.58379695  0.95226709    -0.07500
C1534       C  0.08744270  0.58143082  0.92220935    -0.08300
C1535       C  0.07802585  0.61019570  0.90349646    -0.02800
C1536       C  0.05825363  0.64045434  0.91439375     0.04000
N1537       N  0.04926444  0.67079076  0.89607009     0.66500
H1538       H  0.03469134  0.66636973  0.95186338     0.15400
H1539       H  0.10182293  0.55764323  0.91352145     0.15100
N1540       N  0.09499694  0.55624172  0.97095129     0.74200
O1541       O  0.01801877  0.67224670  0.88424393    -0.39200
O1542       O  0.06910644  0.69919441  0.89677705    -0.39200
O1543       O  0.08215408  0.52404296  0.97002422    -0.39900
O1544       O  0.12567695  0.56180523  0.98298148    -0.39900
C1545       C  0.12375559  0.61553295  0.66850029    -0.12200
C1546       C  0.09044479  0.60991242  0.65399962     0.04800
C1547       C  0.06059103  0.59461408  0.66933860    -0.07500
C1548       C  0.06459220  0.58526855  0.69893257    -0.08300
C1549       C  0.09826473  0.59037444  0.71331052    -0.02800
C1550       C  0.12802145  0.60562157  0.69776105     0.04000
N1551       N  0.16265614  0.61191913  0.71151421     0.66500
H1552       H  0.14677867  0.62745877  0.65693435     0.15400
H1553       H  0.04145720  0.57377143  0.71062894     0.15100
N1554       N  0.02574673  0.58981579  0.65552587     0.74200
O1555       O  0.18881069  0.58995627  0.70637039    -0.39200
O1556       O  0.16932321  0.64300976  0.72284008    -0.39200
O1557       O  0.01545651  0.55794375  0.64810806    -0.39900
O1558       O  0.00273963  0.61585011  0.65602916    -0.39900
C1559       C  0.00277089  0.02332520  0.79079793    -0.12200
C1560       C  0.02228283  0.05506322  0.78234848     0.04800
C1561       C  0.04109559  0.05367192  0.75529802    -0.07500
C1562       C  0.03898926  0.02201579  0.73725027    -0.08300
C1563       C  0.01906812  0.99043376  0.74554388    -0.02800
C1564       C  0.00103511  0.99152987  0.77300063     0.04000
N1565       N  0.98078524  0.96068895  0.78343605     0.66500
H1566       H  0.98787325  0.02321297  0.81135232     0.15400
H1567       H  0.05422050  0.02190473  0.71685385     0.15100
N1568       N  0.06359665  0.08353896  0.74614360     0.74200
O1569       O  0.99539977  0.93948589  0.80179737    -0.39200
O1570       O  0.94642243  0.95999600  0.78004567    -0.39200
O1571       O  0.09728868  0.08338340  0.75252443    -0.39900
O1572       O  0.05217440  0.10482212  0.72649784    -0.39900
C1573       C  0.00538203  0.74046511  0.64672557    -0.12200
C1574       C  0.00804260  0.74865514  0.61686400     0.04800
C1575       C  0.00931911  0.78604795  0.60858960    -0.07500
C1576       C  0.01197116  0.81393427  0.62998123    -0.08300
C1577       C  0.01374165  0.80532542  0.65972000    -0.02800
C1578       C  0.00819170  0.76842467  0.66814431     0.04000
N1579       N  0.00979026  0.75836991  0.69828265     0.66500
H1580       H  0.00512083  0.71197789  0.65354794     0.15400
H1581       H  0.01687675  0.84198079  0.62312668     0.15100
N1582       N  0.01239817  0.79603306  0.57855032     0.74200
O1583       O  0.98033980  0.75539890  0.71263401    -0.39200
O1584       O  0.03904022  0.74490935  0.70843556    -0.39200
O1585       O  0.98519449  0.81090888  0.56630197    -0.39900
O1586       O  0.04391606  0.79987611  0.56750517    -0.39900
C1587       C  0.07210930  0.76478978  0.78267174    -0.12200
C1588       C  0.09833792  0.77452777  0.76151509     0.04800
C1589       C  0.12996437  0.75214465  0.75786949    -0.07500
C1590       C  0.13460175  0.72102881  0.77521355    -0.08300
C1591       C  0.10746505  0.71047105  0.79505555    -0.02800
C1592       C  0.07611567  0.73269902  0.79901358     0.04000
N1593       N  0.04810756  0.72298383  0.81944820     0.66500
H1594       H  0.04789552  0.78169760  0.78613936     0.15400
H1595       H  0.15811004  0.70322966  0.77131644     0.15100
N1596       N  0.15577868  0.75822267  0.73481187     0.74200
O1597       O  0.02122295  0.70388898  0.81089601    -0.39200
O1598       O  0.04601061  0.74009266  0.84358137    -0.39200
O1599       O  0.18928337  0.76222986  0.74099114    -0.39900
O1600       O  0.14688799  0.75006572  0.70884213    -0.39900
C1601       C  0.69929052  0.44593832  0.78746728    -0.12200
C1602       C  0.69395836  0.40885507  0.79511006     0.04800
C1603       C  0.72183744  0.38309229  0.78819406    -0.07500
C1604       C  0.75145216  0.39400604  0.77073250    -0.08300
C1605       C  0.75514857  0.43043680  0.76112989    -0.02800
C1606       C  0.72935083  0.45690024  0.77076469     0.04000
N1607       N  0.73185376  0.49462413  0.76249570     0.66500
H1608       H  0.67892297  0.46658099  0.79326391     0.15400
H1609       H  0.77198276  0.37369803  0.76481326     0.15100
N1610       N  0.72079044  0.34592786  0.79828687     0.74200
O1611       O  0.71615711  0.50512636  0.73942221    -0.39200
O1612       O  0.74243566  0.51827643  0.78104611    -0.39200
O1613       O  0.73039881  0.32018215  0.78114477    -0.39900
O1614       O  0.72054563  0.34006446  0.82548136    -0.39900
C1615       C  0.54808195  0.37907554  0.69374778    -0.12200
C1616       C  0.56262043  0.40510947  0.71375521     0.04800
C1617       C  0.58383215  0.43437385  0.70265751    -0.07500
C1618       C  0.59159163  0.43576167  0.67265640    -0.08300
C1619       C  0.57891606  0.40853166  0.65328249    -0.02800
C1620       C  0.55618304  0.38049949  0.66380928     0.04000
N1621       N  0.54334342  0.35180975  0.64482603     0.66500
H1622       H  0.53140734  0.35650307  0.70139938     0.15400
H1623       H  0.60822156  0.45786286  0.66439019     0.15100
N1624       N  0.59909959  0.46203027  0.72144753     0.74200
O1625       O  0.56287932  0.32345421  0.64082177    -0.39200
O1626       O  0.51011557  0.35143539  0.63706299    -0.39200
O1627       O  0.63071316  0.45734323  0.73208063    -0.39900
O1628       O  0.58469209  0.49364732  0.72233457    -0.39900
C1629       C  0.60595705  0.45092663  0.91183010    -0.12200
C1630       C  0.59219793  0.41602206  0.90465623     0.04800
C1631       C  0.57670177  0.39431459  0.92684729    -0.07500
C1632       C  0.57704280  0.40669357  0.95577139    -0.08300
C1633       C  0.59280141  0.44053632  0.96329210    -0.02800
C1634       C  0.60658644  0.46333174  0.94090803     0.04000
N1635       N  0.62055921  0.49931687  0.94702571     0.66500
H1636       H  0.61706493  0.46837494  0.89488761     0.15400
H1637       H  0.56576695  0.38908178  0.97254943     0.15100
N1638       N  0.55795736  0.36091604  0.92018134     0.74200
O1639       O  0.65401455  0.50295491  0.95354721    -0.39200
O1640       O  0.60309255  0.52686212  0.93772675    -0.39200
O1641       O  0.57423201  0.33055319  0.92359388    -0.39900
O1642       O  0.52339524  0.36163270  0.91873957    -0.39900
C1643       C  0.51752468  0.20548798  0.87458144    -0.12200
C1644       C  0.51335911  0.21168366  0.90477754     0.04800
C1645       C  0.50440104  0.24811434  0.91400815    -0.07500
C1646       C  0.50267401  0.27668005  0.89344056    -0.08300
C1647       C  0.51130056  0.27153076  0.86389768    -0.02800
C1648       C  0.51669758  0.23455451  0.85431523     0.04000
N1649       N  0.52491085  0.22660639  0.82435067     0.66500
H1650       H  0.52525051  0.17791270  0.86674697     0.15400
H1651       H  0.49773324  0.30596154  0.90188044     0.15100
N1652       N  0.50225474  0.25702268  0.94445389     0.74200
O1653       O  0.55760545  0.21944353  0.81711646    -0.39200
O1654       O  0.49915892  0.21774799  0.80724836    -0.39200
O1655       O  0.53106761  0.26644634  0.95783774    -0.39900
O1656       O  0.47139093  0.26432016  0.95569614    -0.39900
C1657       C  0.57110313  0.29505742  0.54077473    -0.12200
C1658       C  0.60598639  0.31121715  0.54100991     0.04800
C1659       C  0.63549555  0.29256726  0.52750108    -0.07500
C1660       C  0.62918097  0.25953940  0.51240838    -0.08300
C1661       C  0.59377672  0.24433485  0.51058341    -0.02800
C1662       C  0.56481389  0.26168925  0.52622691     0.04000
N1663       N  0.52645077  0.24486694  0.02920448     0.66500
H1664       H  0.54833192  0.30872881  0.55173073     0.15400
H1665       H  0.65209573  0.24647951  0.50121399     0.15100
N1666       N  0.67160186  0.30770377  0.52731651     0.74200
O1667       O  0.52219943  0.22255072  0.54727095    -0.39200
O1668       O  0.49930844  0.26127946  0.01814423    -0.39200
O1669       O  0.69673885  0.29145816  0.54114184    -0.39900
O1670       O  0.68003224  0.33094203  0.50810550    -0.39900
C1671       C  0.25444940  0.57323496  0.74540937    -0.12200
C1672       C  0.24426287  0.59893775  0.76724831     0.04800
C1673       C  0.26597063  0.63086539  0.77114554    -0.07500
C1674       C  0.29728731  0.63597337  0.75385321    -0.08300
C1675       C  0.30791844  0.60956996  0.73292162    -0.02800
C1676       C  0.28575906  0.57846942  0.72818524     0.04000
N1677       N  0.29417084  0.55258341  0.70535279     0.66500
H1678       H  0.23788846  0.54896791  0.74145012     0.15400
H1679       H  0.31469945  0.65957513  0.75813800     0.15100
N1680       N  0.25843773  0.65691247  0.79403930     0.74200
O1681       O  0.30797272  0.52177573  0.71162230    -0.39200
O1682       O  0.28165385  0.55774002  0.67995881    -0.39200
O1683       O  0.27369397  0.65318058  0.81863360    -0.39900
O1684       O  0.24272106  0.68689740  0.78806877    -0.39900
C1685       C  0.50996065  0.53003242  0.77311060    -0.12200
C1686       C  0.49923641  0.52637943  0.74364078     0.04800
C1687       C  0.48685987  0.49114018  0.73416137    -0.07500
C1688       C  0.48586246  0.46114731  0.75360657    -0.08300
C1689       C  0.49684730  0.46473165  0.78301354    -0.02800
C1690       C  0.50857832  0.50017689  0.79264739     0.04000
N1691       N  0.51860981  0.50677323  0.82249196     0.66500
H1692       H  0.51830680  0.55671967  0.78151035     0.15400
H1693       H  0.47747939  0.43447173  0.74521719     0.15100
N1694       N  0.47535174  0.48499415  0.70464109     0.74200
O1695       O  0.55211937  0.50889350  0.82927193    -0.39200
O1696       O  0.49464562  0.51842282  0.84032341    -0.39200
O1697       O  0.49781995  0.47169236  0.68629702    -0.39900
O1698       O  0.44151221  0.48496248  0.69876628    -0.39900
C1699       C  0.38953635  0.58221757  0.84862653    -0.12200
C1700       C  0.41402436  0.59623942  0.86954835     0.04800
C1701       C  0.44895634  0.60827713  0.86061987    -0.07500
C1702       C  0.45835505  0.60678620  0.83092091    -0.08300
C1703       C  0.43352838  0.59310419  0.80992077    -0.02800
C1704       C  0.39908089  0.57994169  0.81911497     0.04000
N1705       N  0.37262830  0.56605047  0.79871922     0.66500
H1706       H  0.36269714  0.57286949  0.85528325     0.15400
H1707       H  0.48472006  0.61748889  0.82413548     0.15100
N1708       N  0.47391413  0.62478529  0.88094768     0.74200
O1709       O  0.37622085  0.53377223  0.78862463    -0.39200
O1710       O  0.34221388  0.58237613  0.79604516    -0.39200
O1711       O  0.50206688  0.60723507  0.88889694    -0.39900
O1712       O  0.47170650  0.65886844  0.88625309    -0.39900
C1713       C  0.41045672  0.61426068  0.59804464    -0.12200
C1714       C  0.40641205  0.58666757  0.61917049     0.04800
C1715       C  0.40243483  0.54968471  0.60959083    -0.07500
C1716       C  0.40050550  0.54160769  0.57958033    -0.08300
C1717       C  0.40399636  0.56949935  0.55884876    -0.02800
C1718       C  0.41000021  0.60590197  0.56821144     0.04000
N1719       N  0.41333583  0.63511430  0.54769659     0.66500
H1720       H  0.41366301  0.64279675  0.60457427     0.15400
H1721       H  0.39591537  0.51346721  0.57241920     0.15100
N1722       N  0.39970514  0.52008005  0.62980889     0.74200
O1723       O  0.38582390  0.65516065  0.54247081    -0.39200
O1724       O  0.44487594  0.64577467  0.54018297    -0.39200
O1725       O  0.36848492  0.50798345  0.63676405    -0.39900
O1726       O  0.42795757  0.50136678  0.63562758    -0.39900
C1727       C  0.50883406  0.00269504  0.54632618    -0.12200
C1728       C  0.52148423  0.96754449  0.53734287     0.04800
C1729       C  0.54069441  0.96189198  0.00519911    -0.07500
C1730       C  0.53952675  0.99257154  0.98630670    -0.08300
C1731       C  0.52270776  0.02957215  0.49851524    -0.02800
C1732       C  0.50768124  0.03282709  0.52710242     0.04000
N1733       N  0.48834754  0.06528438  0.53638479     0.66500
H1734       H  0.49481861  0.00543162  0.56721482     0.15400
H1735       H  0.55827750  0.99285064  0.96787877     0.15100
N1736       N  0.56649674  0.93313771  0.99920207     0.74200
O1737       O  0.45813196  0.07308299  0.52441724    -0.39200
O1738       O  0.49617596  0.08018277  0.56065324    -0.39200
O1739       O  0.56206888  0.91277172  0.97697020    -0.39900
O1740       O  0.59735985  0.93377252  0.01171054    -0.39900
C1741       C  0.51141921  0.74618557  0.61279591    -0.12200
C1742       C  0.50569392  0.78178645  0.62450136     0.04800
C1743       C  0.50328056  0.78544976  0.65529731    -0.07500
C1744       C  0.50275366  0.75397414  0.67313388    -0.08300
C1745       C  0.50389168  0.71813853  0.66109611    -0.02800
C1746       C  0.51004373  0.71458779  0.63063653     0.04000
N1747       N  0.51024138  0.67910385  0.61694326     0.66500
H1748       H  0.51225386  0.74241145  0.58921705     0.15400
H1749       H  0.49722186  0.75755698  0.69632920     0.15100
N1750       N  0.49712056  0.82074330  0.66854853     0.74200
O1751       O  0.54051367  0.66381730  0.61096148    -0.39200
O1752       O  0.48128944  0.66720184  0.60511688    -0.39200
O1753       O  0.46519143  0.82969928  0.67674010    -0.39900
O1754       O  0.52419140  0.83938646  0.67734413    -0.39900
C1755       C  0.45251765  0.73539075  0.50201665    -0.12200
C1756       C  0.42424530  0.75592555  0.51513187     0.04800
C1757       C  0.37980690  0.74503783  0.01506439    -0.07500
C1758       C  0.37175860  0.71480748  0.99687432    -0.08300
C1759       C  0.39972287  0.69595297  0.98184215    -0.02800
C1760       C  0.44457538  0.70482648  0.48434499     0.04000
N1761       N  0.47428318  0.68499427  0.47104359     0.66500
H1762       H  0.48094568  0.74260330  0.50596101     0.15400
H1763       H  0.34397579  0.70424234  0.99642234     0.15100
N1764       N  0.35076311  0.76066528  0.03226969     0.74200
O1765       O  0.48352044  0.69231004  0.44510922    -0.39200
O1766       O  0.49560296  0.66622300  0.48676848    -0.39200
O1767       O  0.32588717  0.77905354  0.01989622    -0.39900
O1768       O  0.34563261  0.74936179  0.05799289    -0.39900
C1769       C  0.44343994  0.79352629  0.79449924    -0.12200
C1770       C  0.40772081  0.80808074  0.79629421     0.04800
C1771       C  0.37851372  0.78754095  0.78424595    -0.07500
C1772       C  0.38600459  0.75506209  0.76840809    -0.08300
C1773       C  0.42221224  0.74193893  0.76470609    -0.02800
C1774       C  0.45091644  0.76089764  0.77915117     0.04000
N1775       N  0.48808542  0.74829452  0.77783947     0.66500
H1776       H  0.46621443  0.80839045  0.80421554     0.15400
H1777       H  0.36323248  0.74055368  0.75838833     0.15100
N1778       N  0.34142591  0.80023800  0.78624890     0.74200
O1779       O  0.50940220  0.76104851  0.75867127    -0.39200
O1780       O  0.50135403  0.73119597  0.79930486    -0.39200
O1781       O  0.32568152  0.81217707  0.76364782    -0.39900
O1782       O  0.32229389  0.79146315  0.80813972    -0.39900
C1783       C  0.40148340  0.89411075  0.67778942    -0.12200
C1784       C  0.42134629  0.91482837  0.65740181     0.04800
C1785       C  0.44470522  0.94323760  0.66776055    -0.07500
C1786       C  0.44608341  0.95140514  0.69785970    -0.08300
C1787       C  0.42549934  0.93081128  0.71768771    -0.02800
C1788       C  0.40382395  0.90153176  0.70758250     0.04000
N1789       N  0.38385887  0.87898229  0.72743848     0.66500
H1790       H  0.38387353  0.87174107  0.67074512     0.15400
H1791       H  0.46296851  0.97389186  0.70573092     0.15100
N1792       N  0.46797716  0.96312573  0.64834927     0.74200
O1793       O  0.35008728  0.88496344  0.73140334    -0.39200
O1794       O  0.39731576  0.84842164  0.73478795    -0.39200
O1795       O  0.45918726  0.99528831  0.64085419    -0.39900
O1796       O  0.50013667  0.95157902  0.64344096    -0.39900
C1797       C  0.45745275  0.88280973  0.91447537    -0.12200
C1798       C  0.42845709  0.90610594  0.90690365     0.04800
C1799       C  0.40977787  0.92592595  0.92901967    -0.07500
C1800       C  0.41996884  0.92196761  0.95823902    -0.08300
C1801       C  0.44827076  0.89782293  0.96613201    -0.02800
C1802       C  0.46718609  0.87795132  0.94379947     0.04000
N1803       N  0.49604482  0.85251246  0.95022785     0.66500
H1804       H  0.47187610  0.86731442  0.89759234     0.15400
H1805       H  0.40519255  0.93757270  0.97485841     0.15100
N1806       N  0.38228707  0.95235217  0.92192949     0.74200
O1807       O  0.48784261  0.81985070  0.95665572    -0.39200
O1808       O  0.52809237  0.85921780  0.94126059    -0.39200
O1809       O  0.34893581  0.94546793  0.92694045    -0.39900
O1810       O  0.39199936  0.98489329  0.91672712    -0.39900
C1811       C  0.26608694  0.89307125  0.75711777    -0.12200
C1812       C  0.27863372  0.92940294  0.76097047     0.04800
C1813       C  0.25908479  0.95806924  0.74715090    -0.07500
C1814       C  0.22611629  0.95027017  0.73257142    -0.08300
C1815       C  0.21238752  0.91417760  0.73068469    -0.02800
C1816       C  0.23369176  0.88524829  0.74196563     0.04000
N1817       N  0.22145322  0.84801787  0.74049494     0.66500
H1818       H  0.28082408  0.87033074  0.76677050     0.15400
H1819       H  0.21054948  0.97285312  0.72340386     0.15100
N1820       N  0.27154151  0.99530761  0.74822180     0.74200
O1821       O  0.23181558  0.82778380  0.71941015    -0.39200
O1822       O  0.20849143  0.83340393  0.76320539    -0.39200
O1823       O  0.28807774  0.00833849  0.72636479    -0.39900
O1824       O  0.25902876  0.01693646  0.76762070    -0.39900
C1825       C  0.07934261  0.81068390  0.97787719    -0.12200
C1826       C  0.11578667  0.82302374  0.97911367     0.04800
C1827       C  0.14216180  0.80125531  0.99343574    -0.07500
C1828       C  0.12792288  0.77119975  0.50610653    -0.08300
C1829       C  0.09038504  0.76226125  0.50862537    -0.02800
C1830       C  0.06450725  0.78393214  0.49333439     0.04000
N1831       N  0.02612257  0.77595847  0.49381565     0.66500
H1832       H  0.05895047  0.82646769  0.96608449     0.15400
H1833       H  0.14850972  0.75504895  0.51732478     0.15100
N1834       N  0.17992182  0.81165518  0.99413739     0.74200
O1835       O  0.00460711  0.79755038  0.50725391    -0.39200
O1836       O  0.02455634  0.74377050  0.96748101    -0.39200
O1837       O  0.18954782  0.83101301  0.51249015    -0.39900
O1838       O  0.20229020  0.79566293  0.97711756    -0.39900
C1839       C  0.26557289  0.00358463  0.85461536    -0.12200
C1840       C  0.30123480  0.01126383  0.86462471     0.04800
C1841       C  0.30494025  0.02432409  0.89393302    -0.07500
C1842       C  0.27428763  0.02230051  0.91342044    -0.08300
C1843       C  0.23960010  0.00980473  0.90388647    -0.02800
C1844       C  0.23526932  0.00282776  0.87365923     0.04000
N1845       N  0.20060236  0.99178117  0.86218797     0.66500
H1846       H  0.26174322  0.99415407  0.83220820     0.15400
H1847       H  0.27799661  0.02842078  0.93648634     0.15100
N1848       N  0.33914562  0.03941491  0.90416593     0.74200
O1849       O  0.17955756  0.01606176  0.85191867    -0.39200
O1850       O  0.19564777  0.95846213  0.85523410    -0.39200
O1851       O  0.36249614  0.05121578  0.88611402    -0.39900
O1852       O  0.34404183  0.04576513  0.93112747    -0.39900
C1853       C  0.26035367  0.92422125  0.53839443    -0.12200
C1854       C  0.26007900  0.91339926  0.50884722     0.04800
C1855       C  0.28496286  0.89241320  0.00205995    -0.07500
C1856       C  0.31451732  0.88305924  0.02000336    -0.08300
C1857       C  0.31452061  0.88677046  0.54659443    -0.02800
C1858       C  0.28721218  0.91085174  0.55737777     0.04000
N1859       N  0.28615515  0.92144756  0.58758706     0.66500
H1860       H  0.23946320  0.94287196  0.54679685     0.15400
H1861       H  0.33203344  0.86011360  0.01369484     0.15100
N1862       N  0.27940343  0.87204347  0.97545838     0.74200
O1863       O  0.29786039  0.95271128  0.59530518    -0.39200
O1864       O  0.26672783  0.90322903  0.60513011    -0.39200
O1865       O  0.28551085  0.88691779  0.95107390    -0.39900
O1866       O  0.26983297  0.83874155  0.97631330    -0.39900
C1867       C  0.13491471  0.97151234  0.58288937    -0.12200
C1868       C  0.11997356  0.94799503  0.56149814     0.04800
C1869       C  0.10096690  0.91622365  0.57016939    -0.07500
C1870       C  0.09806233  0.90801232  0.59987768    -0.08300
C1871       C  0.11345780  0.93127952  0.62133186    -0.02800
C1872       C  0.13128706  0.96378302  0.61265259     0.04000
N1873       N  0.14738045  0.98830752  0.63361603     0.66500
H1874       H  0.14995580  0.99581040  0.57647142     0.15400
H1875       H  0.08417368  0.88294659  0.60616591     0.15100
N1876       N  0.08727373  0.89046541  0.54902791     0.74200
O1877       O  0.18078894  0.98463364  0.64027921    -0.39200
O1878       O  0.13061489  0.01748563  0.64078238    -0.39200
O1879       O  0.10810824  0.86559418  0.53893718    -0.39900
O1880       O  0.05398559  0.89146445  0.54145603    -0.39900
C1881       C  0.07146379  0.89567410  0.83099934    -0.12200
C1882       C  0.08310301  0.92402128  0.81223632     0.04800
C1883       C  0.10104450  0.95502370  0.82439728    -0.07500
C1884       C  0.10925286  0.95556412  0.85426819    -0.08300
C1885       C  0.10041895  0.92565720  0.87190441    -0.02800
C1886       C  0.07998640  0.89635977  0.86059825     0.04000
N1887       N  0.06904786  0.86641559  0.87865890     0.66500
H1888       H  0.05657195  0.87201982  0.82269848     0.15400
H1889       H  0.12320823  0.97901203  0.86374046     0.15100
N1890       N  0.11179041  0.98563045  0.80694862     0.74200
O1891       O  0.03815758  0.86743020  0.89119046    -0.39200
O1892       O  0.08680359  0.83656113  0.87760897    -0.39200
O1893       O  0.09571693  0.01618098  0.81041338    -0.39900
O1894       O  0.14172885  0.98431853  0.79301948    -0.39900
C1895       C  0.63763952  0.21734579  0.73798394    -0.12200
C1896       C  0.60890390  0.19404721  0.72971783     0.04800
C1897       C  0.57231271  0.20481162  0.73559275    -0.07500
C1898       C  0.56542418  0.23742336  0.75092347    -0.08300
C1899       C  0.59431868  0.25962080  0.76108411    -0.02800
C1900       C  0.63074469  0.24974833  0.75366084     0.04000
N1901       N  0.66130119  0.27170578  0.76224595     0.66500
H1902       H  0.66588039  0.20950718  0.73365569     0.15400
H1903       H  0.53714181  0.24462342  0.75567494     0.15100
N1904       N  0.54179219  0.18274430  0.72662711     0.74200
O1905       O  0.67550686  0.29292493  0.74372800    -0.39200
O1906       O  0.67946566  0.26267512  0.78457532    -0.39200
O1907       O  0.52356075  0.16562556  0.74562140    -0.39900
O1908       O  0.52840256  0.18697767  0.70141845    -0.39900
C1909       C  0.49467257  0.02099168  0.75813224    -0.12200
C1910       C  0.49598088  0.99944467  0.78344834     0.04800
C1911       C  0.52858177  0.97848939  0.78810088    -0.07500
C1912       C  0.55775052  0.97887033  0.76758894    -0.08300
C1913       C  0.55617317  0.00003853  0.74202529    -0.02800
C1914       C  0.52391619  0.02179468  0.73784280     0.04000
N1915       N  0.52060931  0.04633404  0.71371459     0.66500
H1916       H  0.47038361  0.03727527  0.75368177     0.15400
H1917       H  0.58221136  0.96287900  0.77210529     0.15100
N1918       N  0.53291360  0.95657331  0.81365835     0.74200
O1919       O  0.50517571  0.03535711  0.69051771    -0.39200
O1920       O  0.52457676  0.08044252  0.71810079    -0.39200
O1921       O  0.52968581  0.92207036  0.81163586    -0.39900
O1922       O  0.54783781  0.97048687  0.83608842    -0.39900
C1923       C  0.59465272  0.10641074  0.84839735    -0.12200
C1924       C  0.61197909  0.08357186  0.86874428     0.04800
C1925       C  0.62867775  0.05059671  0.85899539    -0.07500
C1926       C  0.62909629  0.04196058  0.82907878    -0.08300
C1927       C  0.61281605  0.06552996  0.80859889    -0.02800
C1928       C  0.59469728  0.09759603  0.81861098     0.04000
N1929       N  0.57808744  0.12271253  0.79876731     0.66500
H1930       H  0.58107623  0.13151748  0.85563280     0.15400
H1931       H  0.64321690  0.01722589  0.82173952     0.15100
N1932       N  0.64734489  0.02685280  0.87883678     0.74200
O1933       O  0.54378076  0.12176377  0.79511134    -0.39200
O1934       O  0.59579238  0.15067901  0.79081258    -0.39200
O1935       O  0.63305199  0.99650445  0.88558869    -0.39900
O1936       O  0.68075330  0.03251725  0.88453377    -0.39900
C1937       C  0.62733111  0.07699042  0.59874880    -0.12200
C1938       C  0.60514829  0.09581865  0.61904775     0.04800
C1939       C  0.57443589  0.11572874  0.60939159    -0.07500
C1940       C  0.56728955  0.11776590  0.57948855    -0.08300
C1941       C  0.58943539  0.09895003  0.55893492    -0.02800
C1942       C  0.61961692  0.07804065  0.56889458     0.04000
N1943       N  0.64377274  0.05915474  0.54910409     0.66500
H1944       H  0.65102573  0.06152239  0.60611992     0.15400
H1945       H  0.54414608  0.13419572  0.57240525     0.15100
N1946       N  0.55109202  0.13512312  0.62949804     0.74200
O1947       O  0.67218606  0.07523753  0.54001565    -0.39200
O1948       O  0.64122346  0.02469070  0.54613557    -0.39200
O1949       O  0.55460297  0.16946877  0.63269011    -0.39900
O1950       O  0.52250439  0.11964888  0.63891193    -0.39900
C1951       C  0.77801268  0.06868155  0.77632506    -0.12200
C1952       C  0.75981605  0.09678067  0.76106100     0.04800
C1953       C  0.77433064  0.13288790  0.76231390    -0.07500
C1954       C  0.80673144  0.13973866  0.77773454    -0.08300
C1955       C  0.82564151  0.11128387  0.79168966    -0.02800
C1956       C  0.81066596  0.07555823  0.79142222     0.04000
N1957       N  0.82790296  0.04610165  0.80676375     0.66500
H1958       H  0.76726091  0.04090064  0.77621353     0.15400
H1959       H  0.81821773  0.16723581  0.77742191     0.15100
N1960       N  0.75783663  0.16264379  0.74685414     0.74200
O1961       O  0.81951234  0.04068429  0.83318950    -0.39200
O1962       O  0.84451956  0.02118626  0.79251436    -0.39200
O1963       O  0.73763802  0.18528342  0.76052497    -0.39900
O1964       O  0.76953819  0.17063048  0.72168645    -0.39900
C1965       C  0.94832272  0.23148067  0.53718801    -0.12200
C1966       C  0.91276099  0.21782332  0.54179173     0.04800
C1967       C  0.88245623  0.23381945  0.02791288    -0.07500
C1968       C  0.88878711  0.26548764  0.01151406    -0.08300
C1969       C  0.92419562  0.28133952  0.50763989    -0.02800
C1970       C  0.95435651  0.26257958  0.52012154     0.04000
N1971       N  0.99139055  0.27354741  0.51476209     0.66500
H1972       H  0.97189665  0.21685402  0.54575086     0.15400
H1973       H  0.86534087  0.27992119  0.00256884     0.15100
N1974       N  0.84579941  0.22054802  0.03032678     0.74200
O1975       O  0.00811307  0.29265546  0.53369952    -0.39200
O1976       O  0.00931246  0.25829185  0.49428611    -0.39200
O1977       O  0.82414808  0.23571099  0.04838507    -0.39900
O1978       O  0.83306858  0.20024933  0.01020191    -0.39900
C1979       C  0.02641907  0.04146284  0.54148959    -0.12200
C1980       C  0.99446549  0.02217661  0.53265984     0.04800
C1981       C  0.99575030  0.99487875  0.00897456    -0.07500
C1982       C  0.02705386  0.99520421  0.99079776    -0.08300
C1983       C  0.06050730  0.02171283  0.49769256    -0.02800
C1984       C  0.05895541  0.04133117  0.52455470     0.04000
N1985       N  0.08967723  0.06212452  0.53476380     0.66500
H1986       H  0.02598408  0.05791624  0.56140921     0.15400
H1987       H  0.02842286  0.97515412  0.97310212     0.15100
N1988       N  0.96808229  0.96792136  0.00350202     0.74200
O1989       O  0.10874259  0.04997867  0.55559941    -0.39200
O1990       O  0.09227882  0.09558214  0.52796376    -0.39200
O1991       O  0.94667816  0.97179817  0.98204642    -0.39900
O1992       O  0.97066235  0.93690203  0.01551949    -0.39900
C1993       C  0.81307725  0.02485293  0.64716346    -0.12200
C1994       C  0.80710184  0.02087496  0.61697377     0.04800
C1995       C  0.77153952  0.01022310  0.60766113    -0.07500
C1996       C  0.74225376  0.00782336  0.62804951    -0.08300
C1997       C  0.74763917  0.01543538  0.65801901    -0.02800
C1998       C  0.78410111  0.02215349  0.66751111     0.04000
N1999       N  0.79148295  0.03121931  0.69743355     0.66500
H2000       H  0.83977370  0.03377124  0.65486603     0.15400
H2001       H  0.71462420  0.00352268  0.61997050     0.15100
N2002       N  0.76383702  0.00540733  0.57720430     0.74200
O2003       O  0.79635779  0.06448187  0.70456144    -0.39200
O2004       O  0.80254285  0.00631364  0.71435943    -0.39200
O2005       O  0.76274133  0.97330406  0.56644296    -0.39900
O2006       O  0.75091480  0.03190163  0.56280540    -0.39900
C2007       C  0.72188488  0.14030510  0.50015022    -0.12200
C2008       C  0.70720087  0.10624750  0.98350366     0.04800
C2009       C  0.72912820  0.07447801  0.98036081    -0.07500
C2010       C  0.76199155  0.07157359  0.99596981    -0.08300
C2011       C  0.77563120  0.10475694  0.51453096    -0.02800
C2012       C  0.75291522  0.13630597  0.51787615     0.04000
N2013       N  0.75882034  0.16304125  0.54060106     0.66500
H2014       H  0.70380343  0.16366590  0.50385070     0.15400
H2015       H  0.77861216  0.04705712  0.99288210     0.15100
N2016       N  0.71845581  0.04492020  0.96137020     0.74200
O2017       O  0.75971831  0.19671132  0.53414081    -0.39200
O2018       O  0.75296016  0.15420666  0.56685225    -0.39200
O2019       O  0.73398889  0.04121115  0.93679852    -0.39900
O2020       O  0.70026336  0.01848518  0.97160684    -0.39900
C2021       C  0.91726359  0.05899105  0.94268022    -0.12200
C2022       C  0.92483677  0.08641895  0.96361297     0.04800
C2023       C  0.93323584  0.12224189  0.95442589    -0.07500
C2024       C  0.93253606  0.13046286  0.92475031    -0.08300
C2025       C  0.92442701  0.10339866  0.90363627    -0.02800
C2026       C  0.91757923  0.06697996  0.91276662     0.04000
N2027       N  0.90949517  0.03818755  0.89222980     0.66500
H2028       H  0.91054549  0.03138263  0.94962104     0.15400
H2029       H  0.93812004  0.15848411  0.91827166     0.15100
N2030       N  0.93941864  0.15141369  0.97500527     0.74200
O2031       O  0.93491368  0.01694611  0.88370960    -0.39200
O2032       O  0.87652673  0.02918085  0.88777517    -0.39200
O2033       O  0.97177068  0.15835214  0.98317214    -0.39900
O2034       O  0.91461804  0.17524587  0.97901284    -0.39900
C2035       C  0.91317233  0.09733983  0.67397190    -0.12200
C2036       C  0.93598197  0.11532386  0.65387231     0.04800
C2037       C  0.96936519  0.13055264  0.66364324    -0.07500
C2038       C  0.97784301  0.13006113  0.69344025    -0.08300
C2039       C  0.95430434  0.11336849  0.71374033    -0.02800
C2040       C  0.92218438  0.09588125  0.70363368     0.04000
N2041       N  0.89670132  0.07953452  0.72339706     0.66500
H2042       H  0.88776037  0.08480675  0.66671309     0.15400
H2043       H  0.00243636  0.14397820  0.70082539     0.15100
N2044       N  0.99397960  0.14839536  0.64400331     0.74200
O2045       O  0.89670524  0.04505634  0.72642306    -0.39200
O2046       O  0.86935415  0.09803071  0.73209747    -0.39200
O2047       O  0.99350037  0.18303120  0.64231049    -0.39900
O2048       O  0.02109028  0.13072355  0.63381278    -0.39900
loop_ 
_geom_bond_atom_site_label_1 
_geom_bond_atom_site_label_2 
_geom_bond_distance 
_geom_bond_site_symmetry_2 
_ccdc_geom_bond_type 
Fe1          O17   2.065       .  S
Fe1           O7   2.019       .  S
Fe1          O14   2.025       .  S
Fe1        O1030   2.091       .  S
Fe1          O12   1.953       .  S
Fe2           O5   2.095       .  S
Fe2           O9   2.050       .  S
Fe2          O13   2.091       .  S
Fe2          O18   2.047       .  S
Fe2          O12   1.942       .  S
Fe3          O21   2.111       .  S
Fe3           O8   2.090       .  S
Fe3          O15   2.143       .  S
Fe3        O1028   2.042       .  S
Fe3          O12   1.974       .  S
O4        Fe1027   2.042       .  S
O4           C11   1.273       .  A
O5           C19   1.279       .  A
O6        Fe1025   2.100       .  S
O6           C11   1.281       .  A
O7           C10   1.251       .  A
O8           C20   1.274       .  A
O9           C22   1.270       .  A
C10          O15   1.274       .  A
C10         C956   1.513       .  S
C11         C998   1.476       .  S
O13          C16   1.272       .  A
O14          C16   1.262       .  A
C16         C942   1.479       .  S
O17          C22   1.270       .  A
O18          C20   1.264       .  A
C19          O21   1.287       .  A
C19         C970   1.499       .  S
C20         C987   1.486       .  S
C22        C1012   1.466       .  S
Fe23         O39   2.059       .  S
Fe23         O29   2.011       .  S
Fe23         O36   2.027       .  S
Fe23         O28   2.098       .  S
Fe23         O34   1.956       .  S
Fe24         O27   2.079       .  S
Fe24         O31   2.054       .  S
Fe24         O35   2.071       .  S
Fe24         O40   2.057       .  S
Fe24         O34   1.936       .  S
Fe25         O43   2.116       .  S
Fe25         O30   2.087       .  S
Fe25         O37   2.149   1_545  S
Fe25         O26   2.036       .  S
Fe25         O34   1.980       .  S
O26          C33   1.272       .  A
O27          C41   1.275       .  A
O28          C33   1.281       .  A
O29          C32   1.247       .  A
O30          C42   1.274       .  A
O31          C44   1.272       .  A
C32          O37   1.274   1_545  A
C32         C889   1.519   1_545  S
C33         C903   1.468       .  S
O35          C38   1.269       .  A
O36          C38   1.261       .  A
C38         C872   1.464       .  S
O39          C44   1.270       .  A
O40          C42   1.266       .  A
C41          O43   1.289       .  A
C41         C973   1.496       .  S
C42         C928   1.491       .  S
C44         C914   1.466       .  S
Fe45         O61   2.026       .  S
Fe45         O58   2.054       .  S
Fe45         O50   2.011       .  S
Fe45       O1075   2.093       .  S
Fe45         O56   1.945       .  S
Fe46         O49   2.032       .  S
Fe46         O53   2.093       .  S
Fe46         O57   2.052       .  S
Fe46         O62   2.088       .  S
Fe46         O56   1.939       .  S
Fe47         O65   2.081       .  S
Fe47         O59   2.052   1_556  S
Fe47         O48   2.145   1_565  S
Fe47       O1076   2.126   1_565  S
Fe47       O1080   1.988       .  S
O48        C1079   1.271       .  A
O49        C1087   1.262       .  A
O50          C55   1.247   1_565  A
O51       Fe1069   2.084   1_554  S
O51          C54   1.278       .  A
O52       Fe1071   2.120   1_545  S
O52          C64   1.289   1_545  A
O53          C66   1.273       .  A
C54          O59   1.274       .  A
C54         C844   1.466       .  S
C55        O1072   1.273       .  A
C55        C1983   1.515       .  S
O56       Fe1071   1.985       .  S
O57          C60   1.269       .  A
O58          C60   1.266       .  A
C60         C861   1.455       .  S
O61          C66   1.263       .  A
O62          C64   1.278       .  A
C63          O65   1.271       .  A
C63        O1073   1.265       .  A
C63         C830   1.475   1_556  S
C64         C819   1.504   1_565  S
C66         C802   1.475       .  S
Fe67         O83   2.034       .  S
Fe67         O73   2.106       .  S
Fe67         O80   2.087       .  S
Fe67         O72   2.019       .  S
Fe67         O78   1.955       .  S
Fe68         O71   2.047       .  S
Fe68         O75   2.091       .  S
Fe68         O79   2.046       .  S
Fe68         O84   2.086       .  S
Fe68         O78   1.936       .  S
Fe69         O87   2.099       .  S
Fe69         O74   2.120   1_565  S
Fe69         O81   2.042       .  S
Fe69         O70   2.132   1_565  S
Fe69         O78   1.980       .  S
O70          C77   1.273   1_545  A
O71          C85   1.265       .  A
O72          C77   1.251       .  A
O73          C76   1.285       .  A
O74          C86   1.288   1_545  A
O75          C88   1.270       .  A
C76          O81   1.275       .  A
C76         C763   1.478       .  S
C77         C886   1.518       .  S
O79          C82   1.270       .  A
O80          C82   1.277       .  A
C82         C774   1.467       .  S
O83          C88   1.261       .  A
O84          C86   1.278       .  A
C85          O87   1.272       .  A
C85         C788   1.489       .  S
C86         C816   1.505   1_565  S
C88         C746   1.487       .  S
Fe89        O105   2.078       .  S
Fe89         O95   2.012       .  S
Fe89        O102   2.035       .  S
Fe89       O1118   2.108       .  S
Fe89        O100   1.950       .  S
Fe90         O93   2.092       .  S
Fe90         O97   2.051       .  S
Fe90        O101   2.078       .  S
Fe90        O106   2.049       .  S
Fe90        O100   1.935       .  S
Fe91        O109   2.121       .  S
Fe91         O96   2.087       .  S
Fe91        O103   2.159       .  S
Fe91       O1116   2.036       .  S
Fe91        O100   1.981       .  S
O92       Fe1115   2.070       .  S
O92          C99   1.279       .  A
O93         C107   1.278       .  A
O94       Fe1113   2.080       .  S
O94          C99   1.287       .  A
O95          C98   1.248       .  A
O96         C108   1.274       .  A
O97         C110   1.272       .  A
C98         O103   1.274       .  A
C98         C704   1.522       .  S
C99         C777   1.477       .  S
O101        C104   1.269       .  A
O102        C104   1.261       .  A
C104        C833   1.463       .  S
O105        C110   1.273       .  A
O106        C108   1.264       .  A
C107        O109   1.290       .  A
C107        C718   1.505       .  S
C108        C732   1.487       .  S
C110        C760   1.476       .  S
Fe111       O127   2.059       .  S
Fe111       O117   2.017       .  S
Fe111       O124   2.044       .  S
Fe111       O116   2.089       .  S
Fe111       O122   1.958       .  S
Fe112       O115   2.075       .  S
Fe112       O119   2.047       .  S
Fe112       O123   2.072       .  S
Fe112       O128   2.042       .  S
Fe112       O122   1.940       .  S
Fe113       O131   2.123       .  S
Fe113       O118   2.098       .  S
Fe113       O125   2.137       .  S
Fe113       O114   2.046       .  S
Fe113       O122   1.980       .  S
O114        C121   1.276       .  A
O115        C129   1.274       .  A
O116        C121   1.280       .  A
O117        C120   1.249       .  A
O118        C130   1.272       .  A
O119        C132   1.271       .  A
C120        O125   1.274       .  A
C120        C662   1.515       .  S
C121        C679   1.468       .  S
O123        C126   1.267       .  A
O124        C126   1.263       .  A
C126        C651   1.474       .  S
O127        C132   1.269       .  A
O128        C130   1.264       .  A
C129        O131   1.290       .  A
C129        C721   1.498       .  S
C130        C749   1.493       .  S
C132        C690   1.471       .  S
Fe133       O149   2.041       .  S
Fe133       O146   2.066       .  S
Fe133       O138   2.021       .  S
Fe133      O1163   2.087       .  S
Fe133       O144   1.961       .  S
Fe134       O137   2.049       .  S
Fe134       O141   2.067       .  S
Fe134       O145   2.054       .  S
Fe134       O150   2.085       .  S
Fe134       O144   1.936       .  S
Fe135       O153   2.091       .  S
Fe135       O147   2.050   1_556  S
Fe135       O136   2.142       .  S
Fe135      O1164   2.129       .  S
Fe135      O1168   1.982       .  S
O136       C1167   1.275       .  A
O137       C1175   1.264       .  A
O138        C143   1.253       .  A
O139      Fe1157   2.082   1_554  S
O139        C142   1.278       .  A
O140      Fe1159   2.118       .  S
O140        C152   1.290       .  A
O141        C154   1.266       .  A
C142        O147   1.276       .  A
C142        C917   1.472       .  S
C143       O1160   1.270       .  A
C143       C1731   1.516       .  S
O144      Fe1159   1.978       .  S
O145        C148   1.273       .  A
O146        C148   1.273       .  A
C148        C900   1.469       .  S
O149        C154   1.261       .  A
O150        C152   1.276       .  A
C151        O153   1.270       .  A
C151       O1161   1.266       .  A
C151        C637   1.493   1_556  S
C152        C620   1.500       .  S
C154        C984   1.468       .  S
Fe155       O171   2.028       .  S
Fe155       O161   2.104       .  S
Fe155       O168   2.073       .  S
Fe155       O160   2.013       .  S
Fe155       O166   1.950       .  S
Fe156       O159   2.051       .  S
Fe156       O163   2.095       .  S
Fe156       O167   2.069       .  S
Fe156       O172   2.093       .  S
Fe156       O166   1.940       .  S
Fe157       O175   2.080       .  S
Fe157       O162   2.120       .  S
Fe157       O169   2.050       .  S
Fe157       O158   2.142       .  S
Fe157       O166   1.981       .  S
O158        C165   1.272       .  A
O159        C173   1.265       .  A
O160        C165   1.248       .  A
O161        C164   1.282       .  A
O162        C174   1.290       .  A
O163        C176   1.273       .  A
C164        O169   1.274       .  A
C164        C592   1.477       .  S
C165        C665   1.516       .  S
O167        C170   1.273       .  A
O168        C170   1.274       .  A
C170        C606   1.482       .  S
O171        C176   1.261       .  A
O172        C174   1.278       .  A
C173        O175   1.272       .  A
C173        C875   1.484       .  S
C174        C623   1.504       .  S
C176        C578   1.483       .  S
Fe177       O193   2.068       .  S
Fe177       O183   2.016       .  S
Fe177       O190   2.038       .  S
Fe177       O182   2.103       .  S
Fe177       O188   1.947       .  S
Fe178       O181   2.093       .  S
Fe178       O185   2.059       .  S
Fe178       O189   2.091       .  S
Fe178       O194   2.061       .  S
Fe178       O188   1.937       .  S
Fe179       O197   2.107       .  S
Fe179       O184   2.076       .  S
Fe179       O191   2.137       .  S
Fe179       O180   2.025       .  S
Fe179       O188   1.972       .  S
O180        C187   1.272       .  A
O181        C195   1.278       .  A
O182        C187   1.282       .  A
O183        C186   1.250       .  A
O184        C196   1.271       .  A
O185        C198   1.274       .  A
C186        O191   1.271       .  A
C186        C539   1.515       .  S
C187        C858   1.480       .  S
O189        C192   1.271       .  A
O190        C192   1.264       .  A
C192        C791   1.492       .  S
O193        C198   1.273       .  A
O194        C196   1.267       .  A
C195        O197   1.287       .  A
C195        C553   1.497       .  S
C196        C564   1.487       .  S
C198        C847   1.481       .  S
Fe199       O215   2.072       .  S
Fe199       O205   2.008       .  S
Fe199       O212   2.046       .  S
Fe199      O1228   2.117       .  S
Fe199       O210   1.948       .  S
Fe200       O203   2.085       .  S
Fe200       O207   2.063       .  S
Fe200       O211   2.073       .  S
Fe200       O216   2.058       .  S
Fe200       O210   1.927       .  S
Fe201       O219   2.110       .  S
Fe201       O206   2.085       .  S
Fe201       O213   2.142   1_455  S
Fe201      O1226   2.026       .  S
Fe201       O210   1.983       .  S
O202      Fe1225   2.013       .  S
O202        C209   1.271       .  A
O203        C217   1.277       .  A
O204      Fe1223   2.115       .  S
O204        C209   1.284       .  A
O205        C208   1.245   1_455  A
O206        C218   1.270       .  A
O207        C220   1.274       .  A
C208        O213   1.268       .  A
C208        C494   1.513       .  S
C209        C508   1.481       .  S
O211        C214   1.270       .  A
O212        C214   1.263       .  A
C214        C480   1.483       .  S
O215        C220   1.273       .  A
O216        C218   1.266       .  A
C217        O219   1.289       .  A
C217        C550   1.494       .  S
C218        C805   1.491       .  S
C220        C522   1.475       .  S
Fe221       O237   2.040       .  S
Fe221       O227   2.103       .  S
Fe221       O234   2.068       .  S
Fe221       O226   2.012       .  S
Fe221       O232   1.949       .  S
Fe222       O225   2.049       .  S
Fe222       O229   2.086       .  S
Fe222       O233   2.057       .  S
Fe222       O238   2.086       .  S
Fe222       O232   1.929       .  S
Fe223       O241   2.091       .  S
Fe223       O228   2.117   1_655  S
Fe223       O235   2.033       .  S
Fe223       O224   2.146   1_655  S
Fe223       O232   1.985       .  S
O224        C231   1.271       .  A
O225        C239   1.266       .  A
O226        C231   1.247   1_655  A
O227        C230   1.282       .  A
O228        C240   1.288   1_455  A
O229        C242   1.271       .  A
C230        O235   1.272       .  A
C230       C1015   1.475       .  S
C231        C536   1.515       .  S
O233        C236   1.272       .  A
O234        C236   1.272       .  A
C236       C1001   1.473       .  S
O237        C242   1.263       .  A
O238        C240   1.278       .  A
C239        O241   1.272       .  A
C239        C466   1.490       .  S
C240        C455   1.500   1_655  S
C242        C931   1.477       .  S
Fe243       O259   2.043       .  S
Fe243       O256   2.068       .  S
Fe243       O248   2.012       .  S
Fe243      O1273   2.119       .  S
Fe243       O254   1.948       .  S
Fe244       O247   2.048       .  S
Fe244       O251   2.063       .  S
Fe244       O255   2.046       .  S
Fe244       O260   2.082       .  S
Fe244       O254   1.930       .  S
Fe245       O263   2.071       .  S
Fe245       O257   2.044   1_556  S
Fe245      O1274   2.112   1_655  S
Fe245      O1270   2.136   1_655  S
Fe245      O1278   1.976       .  S
O246      Fe1269   2.131   1_455  S
O246        C253   1.268   1_455  A
O247       C1285   1.263       .  A
O248        C253   1.247       .  A
O249      Fe1267   2.111   1_554  S
O249        C252   1.286       .  A
O250      Fe1269   2.115       .  S
O250        C262   1.292       .  A
O251        C264   1.266       .  A
C252        O257   1.275       .  A
C252        C427   1.471       .  S
C253       C1521   1.512       .  S
O254      Fe1269   1.974       .  S
O255        C258   1.269       .  A
O256        C258   1.273       .  A
C258        C438   1.460       .  S
O259        C264   1.262       .  A
O260        C262   1.278       .  A
C261        O263   1.265       .  A
C261       O1271   1.264       .  A
C261        C945   1.485   1_556  S
C262        C452   1.496       .  S
C264        C410   1.463       .  S
Fe265       O281   2.069       .  S
Fe265       O271   2.009       .  S
Fe265       O278   2.037       .  S
Fe265       O270   2.114       .  S
Fe265       O276   1.945       .  S
Fe266       O269   2.082       .  S
Fe266       O273   2.060       .  S
Fe266       O277   2.084       .  S
Fe266       O282   2.046       .  S
Fe266       O276   1.936       .  S
Fe267       O285   2.114       .  S
Fe267       O272   2.089       .  S
Fe267       O279   2.146       .  S
Fe267       O268   2.037       .  S
Fe267       O276   1.980       .  S
O268        C275   1.274       .  A
O269        C283   1.278       .  A
O270        C275   1.285       .  A
O271        C274   1.246       .  A
O272        C284   1.269       .  A
O273        C286   1.271       .  A
C274        O279   1.271       .  A
C274        C382   1.517       .  S
C275        C441   1.469       .  S
O277        C280   1.270       .  A
O278        C280   1.264       .  A
C280        C469   1.484       .  S
O281        C286   1.271       .  A
O282        C284   1.264       .  A
C283        O285   1.291       .  A
C283        C396   1.493       .  S
C284        C581   1.490       .  S
C286        C424   1.468       .  S
Fe287       O303   2.077       .  S
Fe287       O293   2.016       .  S
Fe287       O300   2.038       .  S
Fe287      O1316   2.098       .  S
Fe287       O298   1.952       .  S
Fe288       O291   2.093       .  S
Fe288       O295   2.055       .  S
Fe288       O299   2.093       .  S
Fe288       O304   2.046       .  S
Fe288       O298   1.938       .  S
Fe289       O307   2.108       .  S
Fe289       O294   2.101       .  S
Fe289       O301   2.148       .  S
Fe289      O1314   2.035       .  S
Fe289       O298   1.981       .  S
O290      Fe1313   2.056       .  S
O290        C297   1.272       .  A
O291        C305   1.278       .  A
O292      Fe1311   2.105       .  S
O292        C297   1.283       .  A
O293        C296   1.250       .  A
O294        C306   1.276       .  A
O295        C308   1.272       .  A
C296        O301   1.275       .  A
C296        C371   1.515       .  S
C297        C609   1.484       .  S
O299        C302   1.273       .  A
O300        C302   1.263       .  A
C302        C634   1.480       .  S
O303        C308   1.272       .  A
O304        C306   1.265       .  A
C305        O307   1.286       .  A
C305        C399   1.497       .  S
C306        C413   1.488       .  S
C308        C595   1.481       .  S
Fe309       O325   2.030       .  S
Fe309       O315   2.103       .  S
Fe309       O322   2.059       .  S
Fe309       O314   2.017       .  S
Fe309       O320   1.950       .  S
Fe310       O313   2.056       .  S
Fe310       O317   2.078       .  S
Fe310       O321   2.046       .  S
Fe310       O326   2.088       .  S
Fe310       O320   1.936       .  S
Fe311       O329   2.083       .  S
Fe311       O316   2.120       .  S
Fe311       O323   2.049       .  S
Fe311       O312   2.149       .  S
Fe311       O320   1.965       .  S
O312        C319   1.275       .  A
O313        C327   1.265       .  A
O314        C319   1.250       .  A
O315        C318   1.280       .  A
O316        C328   1.290       .  A
O317        C330   1.271       .  A
C318        O323   1.273       .  A
C318        C525   1.469       .  S
C319        C385   1.515       .  S
O321        C324   1.268       .  A
O322        C324   1.269       .  A
C324        C511   1.451       .  S
O325        C330   1.262       .  A
O326        C328   1.277       .  A
C327        O329   1.272       .  A
C327        C648   1.487       .  S
C328        C354   1.501       .  S
C330        C567   1.470       .  S
Fe331       O347   2.025       .  S
Fe331       O344   2.060       .  S
Fe331       O336   2.010       .  S
Fe331      O1361   2.098       .  S
Fe331       O342   1.953       .  S
Fe332       O335   2.061       .  S
Fe332       O339   2.079       .  S
Fe332       O343   2.053       .  S
Fe332       O348   2.089       .  S
Fe332       O342   1.937       .  S
Fe333       O351   2.090       .  S
Fe333       O345   2.036   1_556  S
Fe333       O334   2.147       .  S
Fe333      O1362   2.115       .  S
Fe333      O1366   1.981       .  S
O334       C1365   1.271       .  A
O335       C1373   1.266       .  A
O336        C341   1.247       .  A
O337      Fe1355   2.101   1_554  S
O337        C340   1.281       .  A
O338      Fe1357   2.123       .  S
O338        C350   1.291       .  A
O339        C352   1.271       .  A
C340        O345   1.272       .  A
C340        C693   1.454       .  S
C341       O1358   1.270       .  A
C341       C1392   1.514       .  S
O342      Fe1357   1.986       .  S
O343        C346   1.272       .  A
O344        C346   1.270       .  A
C346        C676   1.473       .  S
O347        C352   1.260       .  A
O348        C350   1.278       .  A
C349        O351   1.272       .  A
C349       O1359   1.263       .  A
C349        C483   1.489   1_556  S
C350        C357   1.503       .  S
C352        C735   1.474       .  S
C353        C354   1.409       .  A
C353        C358   1.418       .  A
C353        H360   1.084       .  S
C354        C355   1.414       .  A
C355        C356   1.411       .  A
C355        N362   1.428       .  S
C356        C357   1.408       .  A
C356        H361   1.084       .  S
C357        C358   1.414       .  A
C358        N359   1.427       .  S
N359        O363   1.262       .  A
N359        O364   1.261       .  A
N362        O366   1.262       .  A
N362        O365   1.262       .  A
C367        C372   1.411       .  A
C367       C1392   1.416       .  A
C367        H374   1.083       .  S
C368       C1365   1.515       .  S
C368        C369   1.412   1_556  A
C368       C1391   1.416       .  A
C369        C370   1.414       .  A
C369        N376   1.428       .  S
C370        C371   1.417       .  A
C370        H375   1.083       .  S
C371       C1396   1.410       .  A
C372       C1395   1.410       .  A
C372        N373   1.427       .  S
N373        O377   1.261       .  A
N373        O378   1.262       .  A
N376        O380   1.262       .  A
N376        O379   1.262       .  A
C381        C382   1.417       .  A
C381        C386   1.413   1_655  A
C381        H388   1.083       .  S
C382        C383   1.413       .  A
C383        C384   1.412       .  A
C383        N390   1.428       .  S
C384        C385   1.416   1_655  A
C384        H389   1.083       .  S
C385        C386   1.413       .  A
C386        N387   1.428       .  S
N387        O391   1.262       .  A
N387        O392   1.262       .  A
N390        O394   1.262       .  A
N390        O393   1.262       .  A
C395        C396   1.409       .  A
C395        C400   1.415       .  A
C395        H402   1.083       .  S
C396        C397   1.412       .  A
C397        C398   1.409       .  A
C397        N404   1.428       .  S
C398        C399   1.407       .  A
C398        H403   1.084       .  S
C399        C400   1.412       .  A
C400        N401   1.427       .  S
N401        O405   1.261       .  A
N401        O406   1.262       .  A
N404        O408   1.262       .  A
N404        O407   1.262       .  A
C409        C414   1.398       .  A
C409       C1434   1.397   1_554  A
C409        H416   1.084       .  S
C410        C411   1.408       .  A
C410       C1433   1.397       .  A
C411        C412   1.400       .  A
C411        N418   1.429       .  S
C412       C1437   1.406       .  A
C412        H417   1.084       .  S
C413        C414   1.417       .  A
C413       C1436   1.407   1_554  A
C414        N415   1.429       .  S
N415        O419   1.261       .  A
N415        O420   1.262       .  A
N418        O422   1.262       .  A
N418        O421   1.262       .  A
C423        C424   1.398       .  A
C423        C428   1.395       .  A
C423        H430   1.085       .  S
C424        C425   1.411       .  A
C425        C426   1.401       .  A
C425        N432   1.428       .  S
C426        C427   1.401       .  A
C426        H431   1.084       .  S
C427        C428   1.413       .  A
C428        N429   1.429       .  S
N429        O433   1.262       .  A
N429        O434   1.262       .  A
N432        O436   1.261       .  A
N432        O435   1.261       .  A
C437        C438   1.395       .  A
C437        C442   1.390       .  A
C437        H444   1.085       .  S
C438        C439   1.409       .  A
C439        C440   1.404       .  A
C439        N446   1.430       .  S
C440        C441   1.404       .  A
C440        H445   1.083       .  S
C441        C442   1.411       .  A
C442        N443   1.428       .  S
N443        O447   1.261       .  A
N443        O448   1.261       .  A
N446        O450   1.261       .  A
N446        O449   1.262       .  A
C451        C452   1.411   1_455  A
C451        C456   1.419       .  A
C451        H458   1.084       .  S
C452        C453   1.414       .  A
C453        C454   1.405       .  A
C453        N460   1.430       .  S
C454        C455   1.406   1_655  A
C454        H459   1.085       .  S
C455        C456   1.414       .  A
C456        N457   1.427       .  S
N457        O461   1.262       .  A
N457        O462   1.262       .  A
N460        O464   1.262       .  A
N460        O463   1.262       .  A
C465        C466   1.410       .  A
C465        C470   1.402       .  A
C465        H472   1.083       .  S
C466        C467   1.414       .  A
C467        C468   1.397       .  A
C467        N474   1.429       .  S
C468        C469   1.405       .  A
C468        H473   1.084       .  S
C469        C470   1.411       .  A
C470        N471   1.429       .  S
N471        O475   1.262       .  A
N471        O476   1.261       .  A
N474        O478   1.262   1_655  A
N474        O477   1.262   1_655  A
C479        C480   1.402       .  A
C479        C484   1.398       .  A
C479        H486   1.084       .  S
C480        C481   1.413       .  A
C481        C482   1.400       .  A
C481        N488   1.430       .  S
C482        C483   1.407       .  A
C482        H487   1.084       .  S
C483        C484   1.419       .  A
C484        N485   1.430       .  S
N485       O1513   1.262   1_554  A
N485        O490   1.262       .  A
N488        O492   1.262       .  A
N488        O491   1.262       .  A
O489       N1509   1.262       .  A
C493        C494   1.415   1_455  A
C493        C498   1.409       .  A
C493        H500   1.083       .  S
C494       C1519   1.414       .  A
C495        C496   1.412       .  A
C495       C1518   1.414       .  A
C495        N502   1.429       .  S
C496       C1521   1.415       .  A
C496        H501   1.083       .  S
C497       C1277   1.511       .  S
C497        C498   1.413   1_656  A
C497       C1520   1.414       .  A
C498        N499   1.429       .  S
N499        O503   1.262       .  A
N499        O504   1.262       .  A
N502        O506   1.262       .  A
N502        O505   1.262       .  A
C507        C508   1.413       .  A
C507        C512   1.389       .  A
C507        H514   1.083       .  S
C508        C509   1.415       .  A
C509        C510   1.398       .  A
C509        N516   1.428       .  S
C510        C511   1.398       .  A
C510        H515   1.084       .  S
C511        C512   1.397       .  A
C512        N513   1.429       .  S
N513        O517   1.261       .  A
N513        O518   1.262       .  A
N516        O520   1.261       .  A
N516        O519   1.261       .  A
C521        C522   1.400       .  A
C521        C526   1.394       .  A
C521        H528   1.084       .  S
C522        C523   1.414       .  A
C523        C524   1.403       .  A
C523        N530   1.429       .  S
C524        C525   1.402       .  A
C524        H529   1.083       .  S
C525        C526   1.408       .  A
C526        N527   1.428       .  S
N527        O531   1.261       .  A
N527        O532   1.262       .  A
N530        O534   1.262       .  A
N530        O533   1.262       .  A
C535        C536   1.415       .  A
C535        C540   1.410   1_445  A
C535        H542   1.083   1_455  S
C536        C537   1.413       .  A
C537        C538   1.413       .  A
C537        N544   1.428       .  S
C538        C539   1.416   1_545  A
C538        H543   1.083       .  S
C539        C540   1.414   1_455  A
C540        N541   1.428       .  S
N541        O545   1.262       .  A
N541        O546   1.262       .  A
N544        O548   1.261       .  A
N544        O547   1.262       .  A
C549        C550   1.403       .  A
C549        C554   1.408       .  A
C549        H556   1.084       .  S
C550        C551   1.417       .  A
C551        C552   1.414       .  A
C551        N558   1.428       .  S
C552        C553   1.404       .  A
C552        H557   1.084       .  S
C553        C554   1.418       .  A
C554        N555   1.429       .  S
N555        O559   1.262       .  A
N555        O560   1.262       .  A
N558        O562   1.262       .  A
N558        O561   1.262   1_455  A
C563        C564   1.408       .  A
C563        C568   1.395       .  A
C563        H570   1.083       .  S
C564        C565   1.416       .  A
C565        C566   1.398       .  A
C565        N572   1.426       .  S
C566        C567   1.398       .  A
C566        H571   1.083       .  S
C567        C568   1.408       .  A
C568        N569   1.430       .  S
N569        O573   1.262       .  A
N569        O574   1.262       .  A
N572        O576   1.262       .  A
N572        O575   1.261       .  A
C577        C578   1.407       .  A
C577        C582   1.402       .  A
C577        H584   1.084       .  S
C578        C579   1.407       .  A
C579        C580   1.397       .  A
C579        N586   1.425       .  S
C580        C581   1.407       .  A
C580        H585   1.083       .  S
C581        C582   1.415       .  A
C582        N583   1.429       .  S
N583        O587   1.262       .  A
N583        O588   1.262       .  A
N586        O590   1.261       .  A
N586        O589   1.262       .  A
C591        C592   1.406       .  A
C591        C596   1.403       .  A
C591        H598   1.084       .  S
C592        C593   1.409       .  A
C593        C594   1.395       .  A
C593        N600   1.429       .  S
C594        C595   1.403       .  A
C594        H599   1.081       .  S
C595        C596   1.412       .  A
C596        N597   1.429       .  S
N597        O601   1.262       .  A
N597        O602   1.262       .  A
N600        O604   1.262       .  A
N600        O603   1.262       .  A
C605        C606   1.402       .  A
C605        C610   1.403       .  A
C605        H612   1.084       .  S
C606        C607   1.411       .  A
C607        C608   1.398       .  A
C607        N614   1.426       .  S
C608        C609   1.403       .  A
C608        H613   1.084       .  S
C609        C610   1.417       .  A
C610        N611   1.430       .  S
N611        O615   1.262       .  A
N611        O616   1.262       .  A
N614        O618   1.261       .  A
N614        O617   1.262       .  A
C619        C620   1.404       .  A
C619        C624   1.411       .  A
C619        H626   1.083       .  S
C620        C621   1.417       .  A
C621        C622   1.416       .  A
C621        N628   1.427       .  S
C622        C623   1.404       .  A
C622        H627   1.077       .  S
C623        C624   1.417       .  A
C624        N625   1.428       .  S
N625        O629   1.261       .  A
N625        O630   1.262       .  A
N628        O632   1.262       .  A
N628        O631   1.262       .  A
C633        C634   1.404       .  A
C633        C638   1.402       .  A
C633        H640   1.084       .  S
C634        C635   1.408       .  A
C635        C636   1.400       .  A
C635        N642   1.427       .  S
C636        C637   1.408       .  A
C636        H641   1.084       .  S
C637        C638   1.417       .  A
C638       N1663   1.430       .  S
N639       C1662   1.430       .  S
N639       O1667   1.262       .  A
N639        O644   1.262       .  A
N642        O646   1.262       .  A
N642        O645   1.261       .  A
O643       N1663   1.262       .  A
C647        C648   1.406       .  A
C647        C652   1.395       .  A
C647        H654   1.084       .  S
C648        C649   1.417       .  A
C649        C650   1.403       .  A
C649        N656   1.429       .  S
C650        C651   1.403       .  A
C650        H655   1.084       .  S
C651        C652   1.407       .  A
C652        N653   1.429       .  S
N653        O657   1.262       .  A
N653        O658   1.262       .  A
N656        O660   1.262       .  A
N656        O659   1.262       .  A
C661        C662   1.406       .  A
C661        C666   1.411       .  A
C661        H668   1.084       .  S
C662        C663   1.424       .  A
C663        C664   1.414       .  A
C663        N670   1.429       .  S
C664        C665   1.407       .  A
C664        H669   1.083       .  S
C665        C666   1.423       .  A
C666        N667   1.429       .  S
N667        O671   1.262       .  A
N667        O672   1.262       .  A
N670        O674   1.262       .  A
N670        O673   1.262       .  A
C675        C676   1.401       .  A
C675        C680   1.393       .  A
C675        H682   1.081       .  S
C676        C677   1.411       .  A
C677        C678   1.399       .  A
C677        N684   1.429       .  S
C678        C679   1.404       .  A
C678        H683   1.083       .  S
C679        C680   1.409       .  A
C680        N681   1.430       .  S
N681        O685   1.262       .  A
N681        O686   1.261       .  A
N684        O688   1.262       .  A
N684        O687   1.262       .  A
C689        C690   1.401       .  A
C689        C694   1.388       .  A
C689        H696   1.084       .  S
C690        C691   1.416       .  A
C691        C692   1.400       .  A
C691        N698   1.429       .  S
C692        C693   1.398       .  A
C692        H697   1.083       .  S
C693        C694   1.402       .  A
C694        N695   1.426       .  S
N695        O699   1.261       .  A
N695        O700   1.261       .  A
N698        O702   1.262       .  A
N698        O701   1.262       .  A
C703        C704   1.416       .  A
C703        C708   1.412   1_565  A
C703        H710   1.083       .  S
C704       C1729   1.413       .  A
C705        C706   1.415       .  A
C705       C1728   1.411       .  A
C705        N712   1.427       .  S
C706       C1731   1.415   1_565  A
C706        H711   1.083       .  S
C707       C1167   1.521       .  S
C707        C708   1.413   1_556  A
C707       C1730   1.417   1_545  A
C708        N709   1.428       .  S
N709        O713   1.262       .  A
N709        O714   1.262       .  A
N712        O716   1.262       .  A
N712        O715   1.262       .  A
C717        C718   1.410       .  A
C717        C722   1.413       .  A
C717        H724   1.084       .  S
C718        C719   1.415       .  A
C719        C720   1.415       .  A
C719        N726   1.427       .  S
C720        C721   1.406       .  A
C720        H725   1.084       .  S
C721        C722   1.414       .  A
C722        N723   1.429       .  S
N723        O727   1.262       .  A
N723        O728   1.262       .  A
N726        O730   1.261       .  A
N726        O729   1.261       .  A
C731        C732   1.405       .  A
C731        C736   1.394   1_554  A
C731        H738   1.083       .  S
C732       C1757   1.419       .  A
C733        C734   1.395       .  A
C733       C1756   1.416       .  A
C733        N740   1.429       .  S
C734        C735   1.398       .  A
C734        H739   1.084       .  S
C735       C1760   1.415       .  A
C736       C1759   1.409       .  A
C736        N737   1.429       .  S
N737        O741   1.261       .  A
N737        O742   1.262       .  A
N740        O744   1.262       .  A
N740        O743   1.261       .  A
C745        C746   1.408       .  A
C745        C750   1.402       .  A
C745        H752   1.084       .  S
C746        C747   1.409       .  A
C747        C748   1.400       .  A
C747        N754   1.427       .  S
C748        C749   1.410       .  A
C748        H753   1.083       .  S
C749        C750   1.414       .  A
C750        N751   1.429       .  S
N751        O755   1.262       .  A
N751        O756   1.262       .  A
N754        O758   1.262       .  A
N754        O757   1.261       .  A
C759        C760   1.402       .  A
C759        C764   1.395       .  A
C759        H766   1.079       .  S
C760        C761   1.408       .  A
C761        C762   1.401       .  A
C761        N768   1.429       .  S
C762        C763   1.409       .  A
C762        H767   1.083       .  S
C763        C764   1.408       .  A
C764        N765   1.429       .  S
N765        O769   1.262       .  A
N765        O770   1.262       .  A
N768        O772   1.262   1_565  A
N768        O771   1.262       .  A
C773        C774   1.395       .  A
C773        C778   1.399       .  A
C773        H780   1.084       .  S
C774        C775   1.408       .  A
C775        C776   1.395       .  A
C775        N782   1.424       .  S
C776        C777   1.398       .  A
C776        H781   1.084       .  S
C777        C778   1.420       .  A
C778        N779   1.429       .  S
N779        O783   1.261       .  A
N779        O784   1.262       .  A
N782        O786   1.262       .  A
N782        O785   1.261       .  A
C787        C788   1.406       .  A
C787        C792   1.401       .  A
C787        H794   1.080       .  S
C788        C789   1.412       .  A
C789        C790   1.401       .  A
C789        N796   1.429   1_565  S
C790        C791   1.410       .  A
C790        H795   1.083       .  S
C791        C792   1.412       .  A
C792        N793   1.430       .  S
N793        O797   1.262       .  A
N793        O798   1.261       .  A
N796        O800   1.261       .  A
N796        O799   1.262       .  A
C801        C802   1.402       .  A
C801       C1830   1.397       .  A
C801        H808   1.084       .  S
C802        C803   1.408       .  A
C803       C1828   1.402       .  A
C803        N810   1.429       .  S
C804        C805   1.408       .  A
C804       C1827   1.402   1_554  A
C804        H809   1.083       .  S
C805        C806   1.416   1_554  A
C806       C1825   1.400       .  A
C806        N807   1.429       .  S
N807        O811   1.262   1_556  A
N807       O1836   1.262       .  A
N810        O814   1.262       .  A
N810       O1837   1.262       .  A
O812       N1831   1.262       .  A
O813       N1834   1.262   1_554  A
C815        C816   1.402       .  A
C815        C820   1.399       .  A
C815        H822   1.083   1_545  S
C816        C817   1.422       .  A
C817        C818   1.430       .  A
C817        N824   1.439       .  S
C818        C819   1.413       .  A
C818        H823   1.083       .  S
C819        C820   1.408       .  A
C820        N821   1.424   1_545  S
N821        O825   1.261   1_565  A
N821        O826   1.262       .  A
N824        O828   1.263       .  A
N824        O827   1.262       .  A
C829        C830   1.405       .  A
C829        C834   1.399       .  A
C829        H836   1.084       .  S
C830       C1855   1.412       .  A
C831        C832   1.396       .  A
C831       C1854   1.408       .  A
C831        N838   1.430       .  S
C832       C1857   1.402       .  A
C832        H837   1.082       .  S
C833        C834   1.406       .  A
C833       C1856   1.400       .  A
C834        N835   1.429       .  S
N835        O839   1.262       .  A
N835        O840   1.262       .  A
N838        O842   1.262       .  A
N838        O841   1.262       .  A
C843        C844   1.400       .  A
C843        C848   1.399       .  A
C843        H850   1.083   1_565  S
C844        C845   1.406       .  A
C845        C846   1.394       .  A
C845        N852   1.428       .  S
C846        C847   1.406       .  A
C846        H851   1.084       .  S
C847        C848   1.415       .  A
C848        N849   1.429       .  S
N849        O853   1.262   1_565  A
N849        O854   1.262   1_565  A
N852        O856   1.262       .  A
N852        O855   1.261       .  A
C857        C858   1.412       .  A
C857        C862   1.391       .  A
C857        H864   1.083       .  S
C858        C859   1.414       .  A
C859        C860   1.398       .  A
C859        N866   1.430       .  S
C860        C861   1.397       .  A
C860        H865   1.079       .  S
C861        C862   1.398       .  A
C862        N863   1.429       .  S
N863        O867   1.262       .  A
N863        O868   1.262       .  A
N866        O870   1.262       .  A
N866        O869   1.262   1_565  A
C871        C872   1.396       .  A
C871        C876   1.396       .  A
C871        H878   1.084       .  S
C872        C873   1.407       .  A
C873        C874   1.396       .  A
C873        N880   1.429       .  S
C874        C875   1.408       .  A
C874        H879   1.083       .  S
C875        C876   1.418       .  A
C876        N877   1.431       .  S
N877        O881   1.262       .  A
N877        O882   1.262       .  A
N880        O884   1.261       .  A
N880        O883   1.262       .  A
C885        C886   1.405   1_545  A
C885        C890   1.410       .  A
C885        H892   1.084       .  S
C886        C887   1.424       .  A
C887        C888   1.416       .  A
C887        N894   1.428       .  S
C888        C889   1.408       .  A
C888        H893   1.083       .  S
C889        C890   1.424   1_565  A
C890        N891   1.429       .  S
N891        O895   1.262       .  A
N891        O896   1.262       .  A
N894        O898   1.262       .  A
N894        O897   1.262       .  A
C899        C900   1.403       .  A
C899        C904   1.394       .  A
C899        H906   1.084       .  S
C900        C901   1.408       .  A
C901        C902   1.397       .  A
C901        N908   1.429       .  S
C902        C903   1.405       .  A
C902        H907   1.084       .  S
C903        C904   1.408       .  A
C904        N905   1.428       .  S
N905        O909   1.262       .  A
N905        O910   1.261       .  A
N908        O912   1.262       .  A
N908        O911   1.262   1_545  A
C913        C914   1.400       .  A
C913        C918   1.393       .  A
C913        H920   1.084       .  S
C914        C915   1.408       .  A
C915        C916   1.396       .  A
C915        N922   1.428       .  S
C916        C917   1.404       .  A
C916        H921   1.084       .  S
C917        C918   1.413       .  A
C918        N919   1.429       .  S
N919        O923   1.261       .  A
N919        O924   1.262       .  A
N922        O926   1.262       .  A
N922        O925   1.261       .  A
C927        C928   1.407       .  A
C927        C932   1.397       .  A
C927        H934   1.084       .  S
C928        C929   1.418       .  A
C929        C930   1.403       .  A
C929        N936   1.429       .  S
C930        C931   1.402       .  A
C930        H935   1.084       .  S
C931        C932   1.408       .  A
C932        N933   1.429       .  S
N933        O937   1.261       .  A
N933        O938   1.262       .  A
N936        O940   1.262       .  A
N936        O939   1.262       .  A
C941        C942   1.404       .  A
C941        C946   1.396       .  A
C941        H948   1.084       .  S
C942       C1967   1.408       .  A
C943        C944   1.397       .  A
C943       C1966   1.408       .  A
C943        N950   1.426       .  S
C944       C1969   1.406       .  A
C944        H949   1.083       .  S
C945        C946   1.416       .  A
C945       C1968   1.406       .  A
C946        N947   1.429       .  S
N947        O951   1.262   1_655  A
N947        O952   1.262   1_654  A
N950        O954   1.262       .  A
N950        O953   1.262       .  A
C955        C956   1.417   1_455  A
C955        C960   1.413       .  A
C955        H962   1.083       .  S
C956       C1981   1.411   1_545  A
C957        C958   1.409   1_655  A
C957       C1980   1.411       .  A
C957        N964   1.428   1_545  S
C958       C1983   1.416       .  A
C958        H963   1.083   1_545  S
C959       C1079   1.513       .  S
C959        C960   1.411   1_556  A
C959       C1982   1.416   1_545  A
C960        N961   1.428       .  S
N961        O965   1.261       .  A
N961        O966   1.262       .  A
N964        O968   1.262       .  A
N964        O967   1.262       .  A
C969        C970   1.406       .  A
C969        C974   1.417       .  A
C969        H976   1.084       .  S
C970        C971   1.416       .  A
C971        C972   1.408       .  A
C971        N978   1.428       .  S
C972        C973   1.403       .  A
C972        H977   1.084       .  S
C973        C974   1.418       .  A
C974        N975   1.428       .  S
N975        O979   1.262       .  A
N975        O980   1.262   1_545  A
N978        O982   1.261       .  A
N978        O981   1.262   1_545  A
C983        C988   1.399       .  A
C983       C2008   1.399   1_554  A
C983        H990   1.084       .  S
C984        C985   1.406       .  A
C984       C2007   1.398       .  A
C985        C986   1.397       .  A
C985        N992   1.428       .  S
C986       C2011   1.407       .  A
C986        H991   1.083       .  S
C987        C988   1.418       .  A
C987       C2010   1.406   1_554  A
C988        N989   1.430       .  S
N989        O993   1.261       .  A
N989        O994   1.262       .  A
N992        O996   1.262       .  A
N992        O995   1.262       .  A
C997        C998   1.405       .  A
C997       C1002   1.397       .  A
C997       H1004   1.084       .  S
C998        C999   1.411       .  A
C999       C1000   1.397       .  A
C999       N1006   1.428       .  S
C1000      C1001   1.403       .  A
C1000      H1005   1.084       .  S
C1001      C1002   1.408       .  A
C1002      N1003   1.428       .  S
N1003      O1007   1.262       .  A
N1003      O1008   1.262       .  A
N1006      O1010   1.261       .  A
N1006      O1009   1.262       .  A
C1011      C1012   1.401       .  A
C1011      C1016   1.393       .  A
C1011      H1018   1.084       .  S
C1012      C1013   1.407       .  A
C1013      C1014   1.397       .  A
C1013      N1020   1.430       .  S
C1014      C1015   1.408       .  A
C1014      H1019   1.084       .  S
C1015      C1016   1.410       .  A
C1016      N1017   1.428       .  S
N1017      O1021   1.262       .  A
N1017      O1022   1.262       .  A
N1020      O1024   1.262   1_655  A
N1020      O1023   1.262       .  A
Fe1025     O1041   2.066       .  S
Fe1025     O1031   2.019       .  S
Fe1025     O1038   2.025       .  S
Fe1025     O1036   1.953       .  S
Fe1026     O1029   2.091       .  S
Fe1026     O1033   2.051       .  S
Fe1026     O1037   2.089       .  S
Fe1026     O1042   2.048       .  S
Fe1026     O1036   1.942       .  S
Fe1027     O1045   2.113       .  S
Fe1027     O1032   2.087       .  S
Fe1027     O1039   2.144       .  S
Fe1027     O1036   1.969       .  S
O1028      C1035   1.272   1_554  A
O1029      C1043   1.278       .  A
O1030      C1035   1.279   1_554  A
O1031      C1034   1.250       .  A
O1032      C1044   1.273       .  A
O1033      C1046   1.270       .  A
C1034      O1039   1.275       .  A
C1034      C1980   1.514       .  S
C1035      C2022   1.464       .  S
O1037      C1040   1.272       .  A
O1038      C1040   1.261       .  A
C1040      C1966   1.479       .  S
O1041      C1046   1.270       .  A
O1042      C1044   1.264       .  A
C1043      O1045   1.288       .  A
C1043      C1994   1.500       .  S
C1044      C2011   1.485       .  S
C1046      C2036   1.472       .  S
Fe1047     O1063   2.065       .  S
Fe1047     O1053   2.005       .  S
Fe1047     O1060   2.013       .  S
Fe1047     O1052   2.101       .  S
Fe1047     O1058   1.949       .  S
Fe1048     O1051   2.081       .  S
Fe1048     O1055   2.042       .  S
Fe1048     O1059   2.072       .  S
Fe1048     O1064   2.046       .  S
Fe1048     O1058   1.933       .  S
Fe1049     O1067   2.125       .  S
Fe1049     O1054   2.086       .  S
Fe1049     O1061   2.150   1_545  S
Fe1049     O1050   2.041       .  S
Fe1049     O1058   1.977       .  S
O1050      C1057   1.273       .  A
O1051      C1065   1.274       .  A
O1052      C1057   1.281       .  A
O1053      C1056   1.245       .  A
O1054      C1066   1.274       .  A
O1055      C1068   1.270       .  A
C1056      O1061   1.273   1_545  A
C1056      C1913   1.521       .  S
C1057      C1927   1.473       .  S
O1059      C1062   1.269       .  A
O1060      C1062   1.257       .  A
C1062      C1896   1.468       .  S
O1063      C1068   1.272       .  A
O1064      C1066   1.265       .  A
C1065      O1067   1.291       .  A
C1065      C1997   1.502       .  S
C1066      C1952   1.485       .  S
C1068      C1938   1.459       .  S
Fe1069     O1085   2.037       .  S
Fe1069     O1082   2.043       .  S
Fe1069     O1074   2.011       .  S
Fe1069     O1080   1.951       .  S
Fe1070     O1073   2.040       .  S
Fe1070     O1077   2.093       .  S
Fe1070     O1081   2.052       .  S
Fe1070     O1086   2.090       .  S
Fe1070     O1080   1.939       .  S
Fe1071     O1089   2.080       .  S
Fe1071     O1083   2.042       .  S
Fe1071     O1072   2.151   1_565  S
O1074      C1079   1.247   1_565  A
O1075      C1078   1.278       .  A
O1076      C1088   1.290   1_545  A
O1077      C1090   1.272       .  A
C1078      O1083   1.271       .  A
C1078      C1868   1.469       .  S
O1081      C1084   1.269       .  A
O1082      C1084   1.265       .  A
C1084      C1885   1.448       .  S
O1085      C1090   1.264       .  A
O1086      C1088   1.277       .  A
C1087      O1089   1.271       .  A
C1087      C1854   1.464       .  S
C1088      C1843   1.507   1_565  S
C1090      C1826   1.480       .  S
Fe1091     O1107   2.031       .  S
Fe1091     O1097   2.093       .  S
Fe1091     O1104   2.071       .  S
Fe1091     O1096   2.020       .  S
Fe1091     O1102   1.956       .  S
Fe1092     O1095   2.044       .  S
Fe1092     O1099   2.089       .  S
Fe1092     O1103   2.053       .  S
Fe1092     O1108   2.079       .  S
Fe1092     O1102   1.942       .  S
Fe1093     O1111   2.096       .  S
Fe1093     O1098   2.127   1_565  S
Fe1093     O1105   2.043       .  S
Fe1093     O1094   2.138   1_565  S
Fe1093     O1102   1.980       .  S
O1094      C1101   1.276   1_545  A
O1095      C1109   1.266       .  A
O1096      C1101   1.252       .  A
O1097      C1100   1.279       .  A
O1098      C1110   1.290   1_545  A
O1099      C1112   1.269       .  A
C1100      O1105   1.272       .  A
C1100      C1787   1.456       .  S
C1101      C1910   1.520       .  S
O1103      C1106   1.271       .  A
O1104      C1106   1.275       .  A
C1106      C1798   1.469       .  S
O1107      C1112   1.261       .  A
O1108      C1110   1.276       .  A
C1109      O1111   1.272       .  A
C1109      C1812   1.491       .  S
C1110      C1840   1.507   1_565  S
C1112      C1770   1.484       .  S
Fe1113     O1129   2.054       .  S
Fe1113     O1119   1.999       .  S
Fe1113     O1126   2.054       .  S
Fe1113     O1124   1.945       .  S
Fe1114     O1117   2.056       .  S
Fe1114     O1121   2.080       .  S
Fe1114     O1125   2.065       .  S
Fe1114     O1130   2.031       .  S
Fe1114     O1124   1.936       .  S
Fe1115     O1133   2.138       .  S
Fe1115     O1120   2.073       .  S
Fe1115     O1127   2.134       .  S
Fe1115     O1124   1.955       .  S
O1116      C1123   1.270   1_554  A
O1117      C1131   1.272       .  A
O1118      C1123   1.285   1_554  A
O1119      C1122   1.251       .  A
O1120      C1132   1.269       .  A
O1121      C1134   1.282       .  A
C1122      O1127   1.282       .  A
C1122      C1728   1.500       .  S
C1123      C1801   1.477       .  S
O1125      C1128   1.254       .  A
O1126      C1128   1.250       .  A
C1128      C1857   1.465       .  S
O1129      C1134   1.276       .  A
O1130      C1132   1.260       .  A
C1131      O1133   1.290       .  A
C1131      C1742   1.498       .  S
C1132      C1756   1.474       .  S
C1134      C1784   1.480       .  S
Fe1135     O1151   2.068       .  S
Fe1135     O1141   2.020       .  S
Fe1135     O1148   2.045       .  S
Fe1135     O1140   2.093       .  S
Fe1135     O1146   1.958       .  S
Fe1136     O1139   2.082       .  S
Fe1136     O1143   2.055       .  S
Fe1136     O1147   2.072       .  S
Fe1136     O1152   2.051       .  S
Fe1136     O1146   1.939       .  S
Fe1137     O1155   2.120       .  S
Fe1137     O1142   2.089       .  S
Fe1137     O1149   2.137       .  S
Fe1137     O1138   2.039       .  S
Fe1137     O1146   1.980       .  S
O1138      C1145   1.273       .  A
O1139      C1153   1.275       .  A
O1140      C1145   1.281       .  A
O1141      C1144   1.251       .  A
O1142      C1154   1.271       .  A
O1143      C1156   1.273       .  A
C1144      O1149   1.274       .  A
C1144      C1686   1.516       .  S
C1145      C1703   1.471       .  S
O1147      C1150   1.267       .  A
O1148      C1150   1.262       .  A
C1150      C1675   1.470       .  S
O1151      C1156   1.272       .  A
O1152      C1154   1.265       .  A
C1153      O1155   1.289       .  A
C1153      C1745   1.499       .  S
C1154      C1773   1.491       .  S
C1156      C1714   1.484       .  S
Fe1157     O1173   2.042       .  S
Fe1157     O1170   2.062       .  S
Fe1157     O1162   2.020       .  S
Fe1157     O1168   1.965       .  S
Fe1158     O1161   2.050       .  S
Fe1158     O1165   2.071       .  S
Fe1158     O1169   2.058       .  S
Fe1158     O1174   2.080       .  S
Fe1158     O1168   1.941       .  S
Fe1159     O1177   2.072       .  S
Fe1159     O1171   2.044       .  S
Fe1159     O1160   2.121       .  S
O1162      C1167   1.253       .  A
O1163      C1166   1.281       .  A
O1164      C1176   1.292       .  A
O1165      C1178   1.268       .  A
C1166      O1171   1.276       .  A
C1166      C1941   1.473       .  S
O1169      C1172   1.272       .  A
O1170      C1172   1.271       .  A
C1172      C1924   1.471       .  S
O1173      C1178   1.262       .  A
O1174      C1176   1.274       .  A
C1175      O1177   1.265       .  A
C1175      C1661   1.484       .  S
C1176      C1644   1.504       .  S
C1178      C2008   1.471       .  S
Fe1179     O1195   2.017       .  S
Fe1179     O1185   2.109       .  S
Fe1179     O1192   2.066       .  S
Fe1179     O1184   2.012       .  S
Fe1179     O1190   1.944       .  S
Fe1180     O1183   2.046       .  S
Fe1180     O1187   2.100       .  S
Fe1180     O1191   2.053       .  S
Fe1180     O1196   2.100       .  S
Fe1180     O1190   1.940       .  S
Fe1181     O1199   2.074       .  S
Fe1181     O1186   2.125       .  S
Fe1181     O1193   2.042       .  S
Fe1181     O1182   2.147       .  S
Fe1181     O1190   1.970       .  S
O1182      C1189   1.275       .  A
O1183      C1197   1.266       .  A
O1184      C1189   1.247       .  A
O1185      C1188   1.282       .  A
O1186      C1198   1.290       .  A
O1187      C1200   1.272       .  A
C1188      O1193   1.272       .  A
C1188      C1616   1.489       .  S
C1189      C1689   1.516       .  S
O1191      C1194   1.272       .  A
O1192      C1194   1.273       .  A
C1194      C1630   1.470       .  S
O1195      C1200   1.260       .  A
O1196      C1198   1.278       .  A
C1197      O1199   1.273       .  A
C1197      C1899   1.479       .  S
C1198      C1647   1.510       .  S
C1200      C1602   1.486       .  S
Fe1201     O1217   2.074       .  S
Fe1201     O1207   2.018       .  S
Fe1201     O1214   2.036       .  S
Fe1201     O1206   2.105       .  S
Fe1201     O1212   1.945       .  S
Fe1202     O1205   2.093       .  S
Fe1202     O1209   2.048       .  S
Fe1202     O1213   2.091       .  S
Fe1202     O1218   2.045       .  S
Fe1202     O1212   1.933       .  S
Fe1203     O1221   2.078       .  S
Fe1203     O1208   2.089       .  S
Fe1203     O1215   2.126       .  S
Fe1203     O1204   2.011       .  S
Fe1203     O1212   1.972       .  S
O1204      C1211   1.270       .  A
O1205      C1219   1.279       .  A
O1206      C1211   1.282       .  A
O1207      C1210   1.251       .  A
O1208      C1220   1.272       .  A
O1209      C1222   1.270       .  A
C1210      O1215   1.269       .  A
C1210      C1563   1.509       .  S
C1211      C1882   1.475       .  S
O1213      C1216   1.273       .  A
O1214      C1216   1.263       .  A
C1216      C1815   1.482       .  S
O1217      C1222   1.274       .  A
O1218      C1220   1.264       .  A
C1219      O1221   1.280       .  A
C1219      C1577   1.479       .  S
C1220      C1588   1.482       .  S
C1222      C1871   1.473       .  S
Fe1223     O1239   2.076       .  S
Fe1223     O1229   2.013       .  S
Fe1223     O1236   2.053       .  S
Fe1223     O1234   1.943       .  S
Fe1224     O1227   2.087       .  S
Fe1224     O1231   2.064       .  S
Fe1224     O1235   2.082       .  S
Fe1224     O1240   2.052       .  S
Fe1224     O1234   1.931       .  S
Fe1225     O1243   2.089       .  S
Fe1225     O1230   2.092       .  S
Fe1225     O1237   2.136   1_455  S
Fe1225     O1234   1.982       .  S
O1226      C1233   1.273   1_554  A
O1227      C1241   1.278       .  A
O1228      C1233   1.285   1_554  A
O1229      C1232   1.247   1_455  A
O1230      C1242   1.272       .  A
O1231      C1244   1.272       .  A
C1232      O1237   1.268       .  A
C1232      C1518   1.511       .  S
C1233      C1532   1.484       .  S
O1235      C1238   1.272       .  A
O1236      C1238   1.265       .  A
C1238      C1504   1.491       .  S
O1239      C1244   1.274       .  A
O1240      C1242   1.266       .  A
C1241      O1243   1.283       .  A
C1241      C1574   1.482       .  S
C1242      C1829   1.492       .  S
C1244      C1546   1.472       .  S
Fe1245     O1261   2.041       .  S
Fe1245     O1251   2.102       .  S
Fe1245     O1258   2.057       .  S
Fe1245     O1250   2.012       .  S
Fe1245     O1256   1.954       .  S
Fe1246     O1249   2.062       .  S
Fe1246     O1253   2.073       .  S
Fe1246     O1257   2.056       .  S
Fe1246     O1262   2.083       .  S
Fe1246     O1256   1.929       .  S
Fe1247     O1265   2.089       .  S
Fe1247     O1252   2.115   1_655  S
Fe1247     O1259   2.036       .  S
Fe1247     O1248   2.139   1_655  S
Fe1247     O1256   1.985       .  S
O1248      C1255   1.269       .  A
O1249      C1263   1.269       .  A
O1250      C1255   1.246   1_655  A
O1251      C1254   1.282       .  A
O1252      C1264   1.288   1_455  A
O1253      C1266   1.270       .  A
C1254      O1259   1.273       .  A
C1254      C2039   1.472       .  S
C1255      C1560   1.509       .  S
O1257      C1260   1.273       .  A
O1258      C1260   1.269       .  A
C1260      C2025   1.475       .  S
O1261      C1266   1.263       .  A
O1262      C1264   1.276       .  A
C1263      O1265   1.272       .  A
C1263      C1490   1.495       .  S
C1264      C1479   1.498   1_655  S
C1266      C1955   1.472       .  S
Fe1267     O1283   2.052       .  S
Fe1267     O1280   2.062       .  S
Fe1267     O1272   2.015       .  S
Fe1267     O1278   1.946       .  S
Fe1268     O1271   2.054       .  S
Fe1268     O1275   2.075       .  S
Fe1268     O1279   2.052       .  S
Fe1268     O1284   2.088       .  S
Fe1268     O1278   1.928       .  S
Fe1269     O1287   2.074       .  S
Fe1269     O1281   2.044       .  S
O1270      C1277   1.268   1_455  A
O1272      C1277   1.247       .  A
O1273      C1276   1.288       .  A
O1274      C1286   1.292   1_455  A
O1275      C1288   1.270       .  A
C1276      O1281   1.276       .  A
C1276      C1451   1.472       .  S
O1279      C1282   1.271       .  A
O1280      C1282   1.271       .  A
C1282      C1462   1.461       .  S
O1283      C1288   1.264       .  A
O1284      C1286   1.279       .  A
C1285      O1287   1.265       .  A
C1285      C1969   1.484       .  S
C1286      C1476   1.495   1_655  S
C1288      C1434   1.473       .  S
Fe1289     O1305   2.074       .  S
Fe1289     O1295   2.008       .  S
Fe1289     O1302   2.047       .  S
Fe1289     O1294   2.122       .  S
Fe1289     O1300   1.941       .  S
Fe1290     O1293   2.091       .  S
Fe1290     O1297   2.052       .  S
Fe1290     O1301   2.091       .  S
Fe1290     O1306   2.040       .  S
Fe1290     O1300   1.934       .  S
Fe1291     O1309   2.117       .  S
Fe1291     O1296   2.085       .  S
Fe1291     O1303   2.150       .  S
Fe1291     O1292   2.036       .  S
Fe1291     O1300   1.980       .  S
O1292      C1299   1.274       .  A
O1293      C1307   1.279       .  A
O1294      C1299   1.286       .  A
O1295      C1298   1.244       .  A
O1296      C1308   1.270       .  A
O1297      C1310   1.270       .  A
C1298      O1303   1.270       .  A
C1298      C1406   1.516       .  S
C1299      C1465   1.473       .  S
O1301      C1304   1.271       .  A
O1302      C1304   1.265       .  A
C1304      C1493   1.493       .  S
O1305      C1310   1.273       .  A
O1306      C1308   1.264       .  A
C1307      O1309   1.292       .  A
C1307      C1420   1.500       .  S
C1308      C1605   1.482       .  S
C1310      C1448   1.468       .  S
Fe1311     O1327   2.082       .  S
Fe1311     O1317   2.014       .  S
Fe1311     O1324   2.026       .  S
Fe1311     O1322   1.952       .  S
Fe1312     O1315   2.076       .  S
Fe1312     O1319   2.054       .  S
Fe1312     O1323   2.083       .  S
Fe1312     O1328   2.040       .  S
Fe1312     O1322   1.942       .  S
Fe1313     O1331   2.128       .  S
Fe1313     O1318   2.087       .  S
Fe1313     O1325   2.147       .  S
Fe1313     O1322   1.983       .  S
O1314      C1321   1.270   1_554  A
O1315      C1329   1.274       .  A
O1316      C1321   1.282   1_554  A
O1317      C1320   1.250       .  A
O1318      C1330   1.273       .  A
O1319      C1332   1.270       .  A
C1320      O1325   1.275       .  A
C1320      C1395   1.515       .  S
C1321      C1633   1.469       .  S
O1323      C1326   1.270       .  A
O1324      C1326   1.261       .  A
C1326      C1658   1.471       .  S
O1327      C1332   1.273       .  A
O1328      C1330   1.265       .  A
C1329      O1331   1.290       .  A
C1329      C1423   1.503       .  S
C1330      C1437   1.477       .  S
C1332      C1619   1.470       .  S
Fe1333     O1349   2.032       .  S
Fe1333     O1339   2.108       .  S
Fe1333     O1346   2.066       .  S
Fe1333     O1338   2.016       .  S
Fe1333     O1344   1.954       .  S
Fe1334     O1337   2.055       .  S
Fe1334     O1341   2.077       .  S
Fe1334     O1345   2.055       .  S
Fe1334     O1350   2.079       .  S
Fe1334     O1344   1.937       .  S
Fe1335     O1353   2.084       .  S
Fe1335     O1340   2.123       .  S
Fe1335     O1347   2.052       .  S
Fe1335     O1336   2.148       .  S
Fe1335     O1344   1.973       .  S
O1336      C1343   1.274       .  A
O1337      C1351   1.266       .  A
O1338      C1343   1.249       .  A
O1339      C1342   1.282       .  A
O1340      C1352   1.291       .  A
O1341      C1354   1.270       .  A
C1342      O1347   1.274       .  A
C1342      C1549   1.477       .  S
C1343      C1409   1.515       .  S
O1345      C1348   1.270       .  A
O1346      C1348   1.270       .  A
C1348      C1535   1.461       .  S
O1349      C1354   1.262       .  A
O1350      C1352   1.275       .  A
C1351      O1353   1.271       .  A
C1351      C1672   1.487       .  S
C1352      C1378   1.500       .  S
C1354      C1591   1.463       .  S
Fe1355     O1371   2.030       .  S
Fe1355     O1368   2.067       .  S
Fe1355     O1360   2.012       .  S
Fe1355     O1366   1.949       .  S
Fe1356     O1359   2.049       .  S
Fe1356     O1363   2.085       .  S
Fe1356     O1367   2.046       .  S
Fe1356     O1372   2.097       .  S
Fe1356     O1366   1.932       .  S
Fe1357     O1375   2.087       .  S
Fe1357     O1369   2.046       .  S
Fe1357     O1358   2.147       .  S
O1360      C1365   1.248       .  A
O1361      C1364   1.281       .  A
O1362      C1374   1.289       .  A
O1363      C1376   1.271       .  A
C1364      O1369   1.274       .  A
C1364      C1717   1.463       .  S
O1367      C1370   1.271       .  A
O1368      C1370   1.272       .  A
C1370      C1700   1.469       .  S
O1371      C1376   1.262       .  A
O1372      C1374   1.280       .  A
C1373      O1375   1.273       .  A
C1373      C1507   1.492       .  S
C1374      C1381   1.502       .  S
C1376      C1759   1.475       .  S
C1377      C1378   1.409       .  A
C1377      C1382   1.418       .  A
C1377      H1384   1.084       .  S
C1378      C1379   1.413       .  A
C1379      C1380   1.409       .  A
C1379      N1386   1.425       .  S
C1380      C1381   1.405       .  A
C1380      H1385   1.085       .  S
C1381      C1382   1.415       .  A
C1382      N1383   1.428       .  S
N1383      O1387   1.262       .  A
N1383      O1388   1.261       .  A
N1386      O1390   1.262       .  A
N1386      O1389   1.262       .  A
C1391      C1396   1.411   1_556  A
C1391      H1398   1.083       .  S
C1392      C1393   1.411       .  A
C1393      C1394   1.414       .  A
C1393      N1400   1.428       .  S
C1394      C1395   1.418       .  A
C1394      H1399   1.083       .  S
C1396      N1397   1.427       .  S
N1397      O1401   1.260   1_554  A
N1397      O1402   1.262       .  A
N1400      O1404   1.262       .  A
N1400      O1403   1.262       .  A
C1405      C1406   1.416       .  A
C1405      C1410   1.411   1_655  A
C1405      H1412   1.083       .  S
C1406      C1407   1.412       .  A
C1407      C1408   1.413       .  A
C1407      N1414   1.428       .  S
C1408      C1409   1.417   1_655  A
C1408      H1413   1.083       .  S
C1409      C1410   1.412       .  A
C1410      N1411   1.428       .  S
N1411      O1415   1.262       .  A
N1411      O1416   1.262       .  A
N1414      O1418   1.262       .  A
N1414      O1417   1.262       .  A
C1419      C1420   1.408       .  A
C1419      C1424   1.418       .  A
C1419      H1426   1.082       .  S
C1420      C1421   1.413       .  A
C1421      C1422   1.410       .  A
C1421      N1428   1.428       .  S
C1422      C1423   1.409       .  A
C1422      H1427   1.084       .  S
C1423      C1424   1.414       .  A
C1424      N1425   1.426       .  S
N1425      O1429   1.261       .  A
N1425      O1430   1.262       .  A
N1428      O1432   1.261       .  A
N1428      O1431   1.262       .  A
C1433      C1438   1.393       .  A
C1433      H1440   1.084       .  S
C1434      C1435   1.410       .  A
C1435      C1436   1.403       .  A
C1435      N1442   1.429       .  S
C1436      H1441   1.084       .  S
C1437      C1438   1.413       .  A
C1438      N1439   1.428       .  S
N1439      O1443   1.261       .  A
N1439      O1444   1.262       .  A
N1442      O1446   1.262       .  A
N1442      O1445   1.262       .  A
C1447      C1448   1.395       .  A
C1447      C1452   1.392       .  A
C1447      H1454   1.085       .  S
C1448      C1449   1.412       .  A
C1449      C1450   1.404       .  A
C1449      N1456   1.428       .  S
C1450      C1451   1.402       .  A
C1450      H1455   1.084       .  S
C1451      C1452   1.412       .  A
C1452      N1453   1.427       .  S
N1453      O1457   1.261       .  A
N1453      O1458   1.262       .  A
N1456      O1460   1.262       .  A
N1456      O1459   1.261       .  A
C1461      C1462   1.393       .  A
C1461      C1466   1.389       .  A
C1461      H1468   1.085       .  S
C1462      C1463   1.410       .  A
C1463      C1464   1.405       .  A
C1463      N1470   1.430       .  S
C1464      C1465   1.405       .  A
C1464      H1469   1.083       .  S
C1465      C1466   1.413       .  A
C1466      N1467   1.427       .  S
N1467      O1471   1.262       .  A
N1467      O1472   1.262       .  A
N1470      O1474   1.262       .  A
N1470      O1473   1.262       .  A
C1475      C1476   1.410       .  A
C1475      C1480   1.417       .  A
C1475      H1482   1.083       .  S
C1476      C1477   1.412   1_455  A
C1477      C1478   1.407       .  A
C1477      N1484   1.429       .  S
C1478      C1479   1.407   1_655  A
C1478      H1483   1.083       .  S
C1479      C1480   1.412       .  A
C1480      N1481   1.427       .  S
N1481      O1485   1.262       .  A
N1481      O1486   1.261       .  A
N1484      O1488   1.262       .  A
N1484      O1487   1.262   1_655  A
C1489      C1490   1.409       .  A
C1489      C1494   1.405       .  A
C1489      H1496   1.084       .  S
C1490      C1491   1.416       .  A
C1491      C1492   1.400       .  A
C1491      N1498   1.429       .  S
C1492      C1493   1.406       .  A
C1492      H1497   1.084       .  S
C1493      C1494   1.413       .  A
C1494      N1495   1.428       .  S
N1495      O1499   1.262       .  A
N1495      O1500   1.261       .  A
N1498      O1502   1.262   1_655  A
N1498      O1501   1.262   1_655  A
C1503      C1504   1.407       .  A
C1503      C1508   1.404       .  A
C1503      H1510   1.084       .  S
C1504      C1505   1.415       .  A
C1505      C1506   1.399       .  A
C1505      N1512   1.430       .  S
C1506      C1507   1.405       .  A
C1506      H1511   1.084       .  S
C1507      C1508   1.416       .  A
C1508      N1509   1.429       .  S
N1509      O1514   1.262       .  A
N1512      O1516   1.262       .  A
N1512      O1515   1.262       .  A
C1517      C1518   1.413   1_455  A
C1517      C1522   1.408       .  A
C1517      H1524   1.083       .  S
C1519      C1520   1.411   1_554  A
C1519      N1526   1.428   1_554  S
C1520      H1525   1.083       .  S
C1521      C1522   1.413   1_655  A
C1522      N1523   1.428       .  S
N1523      O1527   1.262       .  A
N1523      O1528   1.262       .  A
N1526      O1530   1.262       .  A
N1526      O1529   1.262       .  A
C1531      C1532   1.412       .  A
C1531      C1536   1.392       .  A
C1531      H1538   1.083       .  S
C1532      C1533   1.413       .  A
C1533      C1534   1.399       .  A
C1533      N1540   1.428       .  S
C1534      C1535   1.399       .  A
C1534      H1539   1.081       .  S
C1535      C1536   1.399       .  A
C1536      N1537   1.428       .  S
N1537      O1541   1.262       .  A
N1537      O1542   1.262       .  A
N1540      O1544   1.262       .  A
N1540      O1543   1.262       .  A
C1545      C1546   1.398       .  A
C1545      C1550   1.396       .  A
C1545      H1552   1.084       .  S
C1546      C1547   1.411       .  A
C1547      C1548   1.404       .  A
C1547      N1554   1.428       .  S
C1548      C1549   1.404       .  A
C1548      H1553   1.084       .  S
C1549      C1550   1.413       .  A
C1550      N1551   1.428       .  S
N1551      O1555   1.261       .  A
N1551      O1556   1.262       .  A
N1554      O1558   1.262       .  A
N1554      O1557   1.261       .  A
C1559      C1560   1.413       .  A
C1559      C1564   1.407   1_545  A
C1559      H1566   1.083   1_455  S
C1560      C1561   1.412       .  A
C1561      C1562   1.410       .  A
C1561      N1568   1.428       .  S
C1562      C1563   1.414   1_545  A
C1562      H1567   1.083       .  S
C1563      C1564   1.415       .  A
C1564      N1565   1.429   1_455  S
N1565      O1569   1.262       .  A
N1565      O1570   1.262       .  A
N1568      O1572   1.261       .  A
N1568      O1571   1.262       .  A
C1573      C1574   1.402       .  A
C1573      C1578   1.407       .  A
C1573      H1580   1.084       .  S
C1574      C1575   1.415       .  A
C1575      C1576   1.404       .  A
C1575      N1582   1.427       .  S
C1576      C1577   1.398       .  A
C1576      H1581   1.084       .  S
C1577      C1578   1.414       .  A
C1578      N1579   1.429       .  S
N1579      O1583   1.262   1_455  A
N1579      O1584   1.262       .  A
N1582      O1586   1.262       .  A
N1582      O1585   1.261   1_455  A
C1587      C1588   1.406       .  A
C1587      C1592   1.398       .  A
C1587      H1594   1.084       .  S
C1588      C1589   1.417       .  A
C1589      C1590   1.397       .  A
C1589      N1596   1.430       .  S
C1590      C1591   1.397       .  A
C1590      H1595   1.085       .  S
C1591      C1592   1.407       .  A
C1592      N1593   1.429       .  S
N1593      O1597   1.262       .  A
N1593      O1598   1.262       .  A
N1596      O1600   1.262       .  A
N1596      O1599   1.261       .  A
C1601      C1602   1.409       .  A
C1601      C1606   1.395       .  A
C1601      H1608   1.084       .  S
C1602      C1603   1.412       .  A
C1603      C1604   1.401       .  A
C1603      N1610   1.432       .  S
C1604      C1605   1.406       .  A
C1604      H1609   1.081       .  S
C1605      C1606   1.409       .  A
C1606      N1607   1.429       .  S
N1607      O1611   1.261       .  A
N1607      O1612   1.262       .  A
N1610      O1614   1.262       .  A
N1610      O1613   1.262       .  A
C1615      C1616   1.413       .  A
C1615      C1620   1.400       .  A
C1615      H1622   1.083       .  S
C1616      C1617   1.414       .  A
C1617      C1618   1.400       .  A
C1617      N1624   1.429       .  S
C1618      C1619   1.400       .  A
C1618      H1623   1.078       .  S
C1619      C1620   1.403       .  A
C1620      N1621   1.429       .  S
N1621      O1625   1.262       .  A
N1621      O1626   1.262       .  A
N1624      O1628   1.262       .  A
N1624      O1627   1.262       .  A
C1629      C1630   1.401       .  A
C1629      C1634   1.398       .  A
C1629      H1636   1.084       .  S
C1630      C1631   1.409       .  A
C1631      C1632   1.391       .  A
C1631      N1638   1.425       .  S
C1632      C1633   1.398       .  A
C1632      H1637   1.084       .  S
C1633      C1634   1.415       .  A
C1634      N1635   1.429       .  S
N1635      O1639   1.262       .  A
N1635      O1640   1.262       .  A
N1638      O1642   1.261       .  A
N1638      O1641   1.262       .  A
C1643      C1644   1.403       .  A
C1643      C1648   1.412       .  A
C1643      H1650   1.096       .  S
C1644      C1645   1.422       .  A
C1645      C1646   1.408       .  A
C1645      N1652   1.426       .  S
C1646      C1647   1.395       .  A
C1646      H1651   1.141       .  S
C1647      C1648   1.422       .  A
C1648      N1649   1.426       .  S
N1649      O1653   1.261       .  A
N1649      O1654   1.262       .  A
N1652      O1656   1.261       .  A
N1652      O1655   1.262       .  A
C1657      C1658   1.401       .  A
C1657      C1662   1.396       .  A
C1657      H1664   1.084       .  S
C1658      C1659   1.407       .  A
C1659      C1660   1.397       .  A
C1659      N1666   1.427       .  S
C1660      C1661   1.407       .  A
C1660      H1665   1.084       .  S
C1661      C1662   1.416       .  A
N1663      O1668   1.262       .  A
N1666      O1670   1.262       .  A
N1666      O1669   1.261       .  A
C1671      C1672   1.408       .  A
C1671      C1676   1.399       .  A
C1671      H1678   1.084       .  S
C1672      C1673   1.416       .  A
C1673      C1674   1.400       .  A
C1673      N1680   1.429       .  S
C1674      C1675   1.400       .  A
C1674      H1679   1.084       .  S
C1675      C1676   1.406       .  A
C1676      N1677   1.429       .  S
N1677      O1681   1.262       .  A
N1677      O1682   1.262       .  A
N1680      O1684   1.262       .  A
N1680      O1683   1.262       .  A
C1685      C1686   1.407       .  A
C1685      C1690   1.413       .  A
C1685      H1692   1.084       .  S
C1686      C1687   1.422       .  A
C1687      C1688   1.413       .  A
C1687      N1694   1.428       .  S
C1688      C1689   1.406       .  A
C1688      H1693   1.083       .  S
C1689      C1690   1.424       .  A
C1690      N1691   1.429       .  S
N1691      O1695   1.262       .  A
N1691      O1696   1.262       .  A
N1694      O1698   1.262       .  A
N1694      O1697   1.262       .  A
C1699      C1700   1.401       .  A
C1699      C1704   1.393       .  A
C1699      H1706   1.080       .  S
C1700      C1701   1.408       .  A
C1701      C1702   1.399       .  A
C1701      N1708   1.429       .  S
C1702      C1703   1.407       .  A
C1702      H1707   1.083       .  S
C1703      C1704   1.409       .  A
C1704      N1705   1.430       .  S
N1705      O1709   1.262       .  A
N1705      O1710   1.262       .  A
N1708      O1712   1.262       .  A
N1708      O1711   1.262       .  A
C1713      C1714   1.406       .  A
C1713      C1718   1.393       .  A
C1713      H1720   1.083       .  S
C1714      C1715   1.417       .  A
C1715      C1716   1.400       .  A
C1715      N1722   1.428       .  S
C1716      C1717   1.400       .  A
C1716      H1721   1.084       .  S
C1717      C1718   1.404       .  A
C1718      N1719   1.428       .  S
N1719      O1723   1.262       .  A
N1719      O1724   1.262       .  A
N1722      O1726   1.262       .  A
N1722      O1725   1.262       .  A
C1727      C1728   1.413   1_545  A
C1727      C1732   1.411       .  A
C1727      H1734   1.085       .  S
C1729      C1730   1.417   1_554  A
C1729      N1736   1.427   1_554  S
C1730      H1735   1.083       .  S
C1731      C1732   1.418       .  A
C1732      N1733   1.432       .  S
N1733      O1737   1.262       .  A
N1733      O1738   1.262       .  A
N1736      O1740   1.262   1_556  A
N1736      O1739   1.261       .  A
C1741      C1742   1.409       .  A
C1741      C1746   1.416       .  A
C1741      H1748   1.084       .  S
C1742      C1743   1.414       .  A
C1743      C1744   1.411       .  A
C1743      N1750   1.429       .  S
C1744      C1745   1.409       .  A
C1744      H1749   1.084       .  S
C1745      C1746   1.413       .  A
C1746      N1747   1.427       .  S
N1747      O1751   1.261       .  A
N1747      O1752   1.261       .  A
N1750      O1754   1.262       .  A
N1750      O1753   1.262       .  A
C1755      C1756   1.400       .  A
C1755      C1760   1.397       .  A
C1755      H1762   1.084       .  S
C1757      C1758   1.402   1_554  A
C1757      N1764   1.429       .  S
C1758      C1759   1.401       .  A
C1758      H1763   1.084       .  S
C1760      N1761   1.429       .  S
N1761      O1765   1.262       .  A
N1761      O1766   1.262       .  A
N1764      O1768   1.262       .  A
N1764      O1767   1.262       .  A
C1769      C1770   1.405       .  A
C1769      C1774   1.397       .  A
C1769      H1776   1.084       .  S
C1770      C1771   1.410       .  A
C1771      C1772   1.403       .  A
C1771      N1778   1.429       .  S
C1772      C1773   1.410       .  A
C1772      H1777   1.083       .  S
C1773      C1774   1.414       .  A
C1774      N1775   1.429       .  S
N1775      O1779   1.262       .  A
N1775      O1780   1.262       .  A
N1778      O1782   1.262       .  A
N1778      O1781   1.262       .  A
C1783      C1784   1.404       .  A
C1783      C1788   1.387       .  A
C1783      H1790   1.083       .  S
C1784      C1785   1.417       .  A
C1785      C1786   1.404       .  A
C1785      N1792   1.429       .  S
C1786      C1787   1.399       .  A
C1786      H1791   1.083       .  S
C1787      C1788   1.401       .  A
C1788      N1789   1.428       .  S
N1789      O1793   1.261       .  A
N1789      O1794   1.261       .  A
N1792      O1796   1.262       .  A
N1792      O1795   1.262       .  A
C1797      C1798   1.398       .  A
C1797      C1802   1.398       .  A
C1797      H1804   1.084       .  S
C1798      C1799   1.408       .  A
C1799      C1800   1.394       .  A
C1799      N1806   1.425       .  S
C1800      C1801   1.402       .  A
C1800      H1805   1.084       .  S
C1801      C1802   1.420       .  A
C1802      N1803   1.430       .  S
N1803      O1807   1.262       .  A
N1803      O1808   1.262       .  A
N1806      O1810   1.260       .  A
N1806      O1809   1.262       .  A
C1811      C1812   1.408       .  A
C1811      C1816   1.397       .  A
C1811      H1818   1.082       .  S
C1812      C1813   1.414       .  A
C1813      C1814   1.402       .  A
C1813      N1820   1.429       .  S
C1814      C1815   1.407       .  A
C1814      H1819   1.084       .  S
C1815      C1816   1.407       .  A
C1816      N1817   1.427       .  S
N1817      O1821   1.262       .  A
N1817      O1822   1.262       .  A
N1820      O1824   1.262   1_565  A
N1820      O1823   1.262   1_565  A
C1825      C1826   1.403       .  A
C1825      H1832   1.084       .  S
C1826      C1827   1.409       .  A
C1827      N1834   1.428       .  S
C1828      C1829   1.411       .  A
C1828      H1833   1.083       .  S
C1829      C1830   1.416       .  A
C1830      N1831   1.429       .  S
N1831      O1835   1.261       .  A
N1834      O1838   1.261       .  A
C1839      C1840   1.405       .  A
C1839      C1844   1.405       .  A
C1839      H1846   1.085   1_545  S
C1840      C1841   1.422       .  A
C1841      C1842   1.429       .  A
C1841      N1848   1.439       .  S
C1842      C1843   1.412       .  A
C1842      H1847   1.083       .  S
C1843      C1844   1.410       .  A
C1844      N1845   1.425   1_545  S
N1845      O1849   1.261   1_565  A
N1845      O1850   1.262       .  A
N1848      O1852   1.263       .  A
N1848      O1851   1.263       .  A
C1853      C1854   1.401       .  A
C1853      C1858   1.397       .  A
C1853      H1860   1.084       .  S
C1855      C1856   1.397       .  A
C1855      N1862   1.431   1_554  S
C1856      H1861   1.085       .  S
C1857      C1858   1.408       .  A
C1858      N1859   1.429       .  S
N1859      O1863   1.261       .  A
N1859      O1864   1.262       .  A
N1862      O1866   1.261       .  A
N1862      O1865   1.262       .  A
C1867      C1868   1.403       .  A
C1867      C1872   1.397       .  A
C1867      H1874   1.083       .  S
C1868      C1869   1.408       .  A
C1869      C1870   1.396       .  A
C1869      N1876   1.429       .  S
C1870      C1871   1.406       .  A
C1870      H1875   1.084       .  S
C1871      C1872   1.410       .  A
C1872      N1873   1.429       .  S
N1873      O1877   1.262       .  A
N1873      O1878   1.262   1_565  A
N1876      O1880   1.262       .  A
N1876      O1879   1.261       .  A
C1881      C1882   1.412       .  A
C1881      C1886   1.387       .  A
C1881      H1888   1.083       .  S
C1882      C1883   1.413       .  A
C1883      C1884   1.397       .  A
C1883      N1890   1.430       .  S
C1884      C1885   1.397       .  A
C1884      H1889   1.080       .  S
C1885      C1886   1.396       .  A
C1886      N1887   1.429       .  S
N1887      O1891   1.262       .  A
N1887      O1892   1.262       .  A
N1890      O1894   1.262       .  A
N1890      O1893   1.262   1_565  A
C1895      C1896   1.398       .  A
C1895      C1900   1.393       .  A
C1895      H1902   1.084       .  S
C1896      C1897   1.412       .  A
C1897      C1898   1.392       .  A
C1897      N1904   1.430       .  S
C1898      C1899   1.404       .  A
C1898      H1903   1.083       .  S
C1899      C1900   1.413       .  A
C1900      N1901   1.424       .  S
N1901      O1905   1.262       .  A
N1901      O1906   1.262       .  A
N1904      O1908   1.261       .  A
N1904      O1907   1.262       .  A
C1909      C1910   1.404   1_545  A
C1909      C1914   1.411       .  A
C1909      H1916   1.083       .  S
C1910      C1911   1.426       .  A
C1911      C1912   1.415       .  A
C1911      N1918   1.428       .  S
C1912      C1913   1.406   1_565  A
C1912      H1917   1.083       .  S
C1913      C1914   1.428       .  A
C1914      N1915   1.429       .  S
N1915      O1919   1.261       .  A
N1915      O1920   1.262       .  A
N1918      O1922   1.262       .  A
N1918      O1921   1.262       .  A
C1923      C1924   1.402       .  A
C1923      C1928   1.394       .  A
C1923      H1930   1.085       .  S
C1924      C1925   1.410       .  A
C1925      C1926   1.398       .  A
C1925      N1932   1.429       .  S
C1926      C1927   1.405       .  A
C1926      H1931   1.084       .  S
C1927      C1928   1.409       .  A
C1928      N1929   1.427       .  S
N1929      O1933   1.261       .  A
N1929      O1934   1.261       .  A
N1932      O1936   1.262       .  A
N1932      O1935   1.262   1_545  A
C1937      C1938   1.400       .  A
C1937      C1942   1.393       .  A
C1937      H1944   1.084       .  S
C1938      C1939   1.404       .  A
C1939      C1940   1.393       .  A
C1939      N1946   1.429       .  S
C1940      C1941   1.407       .  A
C1940      H1945   1.083       .  S
C1941      C1942   1.413       .  A
C1942      N1943   1.429       .  S
N1943      O1947   1.262       .  A
N1943      O1948   1.262       .  A
N1946      O1950   1.262       .  A
N1946      O1949   1.262       .  A
C1951      C1952   1.407       .  A
C1951      C1956   1.397       .  A
C1951      H1958   1.084       .  S
C1952      C1953   1.417       .  A
C1953      C1954   1.397       .  A
C1953      N1960   1.429       .  S
C1954      C1955   1.400       .  A
C1954      H1959   1.085       .  S
C1955      C1956   1.409       .  A
C1956      N1957   1.429       .  S
N1957      O1961   1.262       .  A
N1957      O1962   1.262       .  A
N1960      O1964   1.262       .  A
N1960      O1963   1.262       .  A
C1965      C1966   1.405       .  A
C1965      C1970   1.397       .  A
C1965      H1972   1.084       .  S
C1967      C1968   1.399       .  A
C1967      N1974   1.425       .  S
C1968      H1973   1.083       .  S
C1969      C1970   1.415       .  A
C1970      N1971   1.429       .  S
N1971      O1975   1.262   1_655  A
N1971      O1976   1.262   1_655  A
N1974      O1978   1.262       .  A
N1974      O1977   1.261       .  A
C1979      C1980   1.417   1_455  A
C1979      C1984   1.414       .  A
C1979      H1986   1.083       .  S
C1981      C1982   1.409   1_654  A
C1981      N1988   1.428       .  S
C1982      H1987   1.083       .  S
C1983      C1984   1.413       .  A
C1984      N1985   1.428       .  S
N1985      O1989   1.261       .  A
N1985      O1990   1.262       .  A
N1988      O1992   1.262       .  A
N1988      O1991   1.262   1_554  A
C1993      C1994   1.402       .  A
C1993      C1998   1.409       .  A
C1993      H2000   1.084       .  S
C1994      C1995   1.418       .  A
C1995      C1996   1.418       .  A
C1995      N2002   1.428       .  S
C1996      C1997   1.407       .  A
C1996      H2001   1.084       .  S
C1997      C1998   1.419       .  A
C1998      N1999   1.428       .  S
N1999      O2003   1.261       .  A
N1999      O2004   1.262       .  A
N2002      O2006   1.262       .  A
N2002      O2005   1.262   1_545  A
C2007      C2012   1.399       .  A
C2007      H2014   1.084       .  S
C2008      C2009   1.408       .  A
C2009      C2010   1.398       .  A
C2009      N2016   1.428       .  S
C2010      H2015   1.083       .  S
C2011      C2012   1.419       .  A
C2012      N2013   1.431       .  S
N2013      O2017   1.262       .  A
N2013      O2018   1.262       .  A
N2016      O2020   1.262       .  A
N2016      O2019   1.262       .  A
C2021      C2022   1.402       .  A
C2021      C2026   1.399       .  A
C2021      H2028   1.084       .  S
C2022      C2023   1.406       .  A
C2023      C2024   1.391       .  A
C2023      N2030   1.428       .  S
C2024      C2025   1.402       .  A
C2024      H2029   1.083       .  S
C2025      C2026   1.414       .  A
C2026      N2027   1.429       .  S
N2027      O2031   1.262       .  A
N2027      O2032   1.262       .  A
N2030      O2034   1.261       .  A
N2030      O2033   1.262       .  A
C2035      C2036   1.405       .  A
C2035      C2040   1.395       .  A
C2035      H2042   1.084       .  S
C2036      C2037   1.409       .  A
C2037      C2038   1.396       .  A
C2037      N2044   1.429       .  S
C2038      C2039   1.405       .  A
C2038      H2043   1.082   1_655  S
C2039      C2040   1.409       .  A
C2040      N2041   1.429       .  S
N2041      O2045   1.262       .  A
N2041      O2046   1.261       .  A
N2044      O2048   1.262   1_655  A
N2044      O2047   1.262       .  A
