geometry optimzed in LAMMPS
_audit_creation_date              2020-12-01 
_audit_creation_method            'lammps2cif' 
_symmetry_space_group_name_H-M    'P1' 
_symmetry_Int_Tables_number       1 
_symmetry_cell_setting            triclinic 
loop_ 
_symmetry_equiv_pos_as_xyz 
  x,y,z 
_cell_length_a                    25.70225625 
_cell_length_b                    25.240317400507134 
_cell_length_c                    40.54688122628541 
_cell_angle_alpha                 90.2338254033923 
_cell_angle_beta                  89.3312203609667 
_cell_angle_gamma                 89.70318940541033 
loop_ 
_atom_site_label 
_atom_site_type_symbol 
_atom_site_fract_x 
_atom_site_fract_y 
_atom_site_fract_z 
_atom_site_charge 
O1          O  0.71296362  0.99162662  0.34317811    -0.86800
O2          O  0.62383619  0.94351103  0.33957192    -0.83900
C3          C  0.58662900  0.91273476  0.34227807     0.96600
O4          O  0.59403662  0.86811177  0.35631647    -0.83900
O5          O  0.68739923  0.81626810  0.32622826    -0.86600
C6          C  0.73594628  0.80863867  0.32052773     1.01100
O7          O  0.76826798  0.82381023  0.34211904    -0.79300
O8          O  0.76427937  0.92606348  0.32630253    -0.79500
C9          C  0.74036300  0.96854912  0.32099765     1.01100
O10         O  0.70894628  0.97717950  0.41549674    -0.86800
O11         O  0.61624395  0.93121995  0.41267911    -0.83900
C12         C  0.61994745  0.89015807  0.43073981     0.96600
O13         O  0.64015735  0.84804582  0.41925825    -0.83900
O14         O  0.72301236  0.79199232  0.39294626    -0.86500
C15         C  0.76013555  0.80966126  0.41057118     1.01100
O16         O  0.76816927  0.85851283  0.41150231    -0.79400
O17         O  0.78206637  0.96167929  0.39027565    -0.79500
C18         C  0.75493998  0.98970957  0.40973231     1.01100
Cr19       Cr  0.66728132  0.95662597  0.37748249     1.93700
Cr20       Cr  0.66289176  0.83484101  0.37309659     1.93200
Cr21       Cr  0.76643809  0.89223709  0.36855087     1.39100
O22         O  0.69836258  0.89489111  0.37257252    -1.24600
O23         O  0.76674731  0.91496382  0.67291636    -0.86800
O24         O  0.76761111  0.81327672  0.65556221    -0.83900
C25         C  0.73528932  0.79626306  0.67716862     0.96600
O26         O  0.68672520  0.80501549  0.67281136    -0.83900
O27         O  0.59290678  0.85819586  0.64543361    -0.86600
C28         C  0.58608809  0.90143188  0.66131685     1.01100
O29         O  0.62440663  0.93011357  0.66560366    -0.79300
O30         O  0.71293881  0.98051851  0.66080379    -0.79500
C31         C  0.74269261  0.95653314  0.68076245     1.01100
O32         O  0.78066530  0.95314717  0.60885301    -0.86800
O33         O  0.76495126  0.85044385  0.58630547    -0.83900
C34         C  0.75777052  0.80147290  0.58718659     0.96600
O35         O  0.72100823  0.78352069  0.60532345    -0.83900
O36         O  0.63900865  0.84219244  0.58177823    -0.86500
C37         C  0.61850861  0.88505586  0.57222801     1.01100
O38         O  0.61437065  0.92451653  0.59193598    -0.79400
O39         O  0.70547506  0.97364726  0.58867934    -0.79500
C40         C  0.75256505  0.98369660  0.59197428     1.01100
Cr41       Cr  0.76570630  0.88278234  0.62999351     1.93700
Cr42       Cr  0.66173116  0.82603663  0.62700856     1.93200
Cr43       Cr  0.66601669  0.94788976  0.62689100     1.39100
O44         O  0.69756160  0.88602362  0.62836507    -1.24600
O45         O  0.33671251  0.97560238  0.33947395    -0.86800
O46         O  0.39496240  0.04290585  0.38352087    -0.83900
C47         C  0.41067759  0.04846915  0.35512655     0.96600
O48         O  0.38285192  0.07910804  0.33823338    -0.83900
O49         O  0.29027026  0.12654330  0.31529920    -0.86600
C50         C  0.24635841  0.11294210  0.30380321     1.01100
O51         O  0.21947684  0.07811634  0.31874141    -0.79300
O52         O  0.25027095  0.97416386  0.33488185    -0.79500
C53         C  0.29585674  0.96782261  0.32262815     1.01100
O54         O  0.28133136  0.94512804  0.39358661    -0.86800
O55         O  0.32125409  0.03372460  0.42920926    -0.83900
C56         C  0.33448501  0.08180186  0.43405383     0.96600
O57         O  0.34400823  0.11407530  0.40995437    -0.83900
O58         O  0.25789021  0.15661162  0.37895182    -0.86500
C59         C  0.21241619  0.14259933  0.38752802     1.01100
O60         O  0.19730928  0.09530245  0.38662286    -0.79400
O61         O  0.21396323  0.99353037  0.40226258    -0.79500
C62         C  0.23670420  0.94979042  0.40531468     1.01100
Cr63       Cr  0.33084210  0.00230706  0.38540550     1.93700
Cr64       Cr  0.31847028  0.11465626  0.36146955     1.93200
Cr65       Cr  0.22516083  0.03616851  0.36111250     1.39100
O66         O  0.28981936  0.05232846  0.36943453    -1.24600
O67         O  0.24574564  0.96029207  0.66699833    -0.86800
O68         O  0.21485585  0.06441101  0.68749551    -0.83900
C69         C  0.24065654  0.09960322  0.70273144     0.96600
O70         O  0.28514002  0.11324584  0.69142747    -0.83900
O71         O  0.37875475  0.06454453  0.66774484    -0.86600
C72         C  0.40737999  0.03450668  0.65032015     1.01100
O73         O  0.39312639  0.02926933  0.62166459    -0.79300
O74         O  0.33196219  0.96052819  0.66269223    -0.79500
C75         C  0.29052741  0.95542630  0.67987750     1.01100
O76         O  0.21103015  0.98632993  0.60098849    -0.86800
O77         O  0.19533565  0.08689268  0.62069372    -0.83900
C78         C  0.21267027  0.13338860  0.61916549     0.96600
O79         O  0.25822510  0.14587579  0.62768332    -0.83900
O80         O  0.34501129  0.10381309  0.59721015    -0.86500
C81         C  0.33494118  0.07405347  0.57202311     1.01100
O82         O  0.32065623  0.02595432  0.57514599    -0.79400
O83         O  0.27723890  0.93570193  0.60724412    -0.79500
C84         C  0.23287280  0.94240579  0.59606899     1.01100
Cr85       Cr  0.22173974  0.02520583  0.64368104     1.93700
Cr86       Cr  0.31633329  0.10221849  0.64520783     1.93200
Cr87       Cr  0.32785663  0.99087948  0.61781814     1.39100
O88         O  0.28703806  0.04080239  0.63550287    -1.24600
O89         O  0.76488708  0.02107016  0.82480922    -0.86800
O90         O  0.75993929  0.12346208  0.84108079    -0.83900
C91         C  0.72665610  0.13524482  0.81920193     0.96600
O92         O  0.67917384  0.12237098  0.82406171    -0.83900
O93         O  0.58879320  0.06750350  0.85305694    -0.86600
C94         C  0.58396244  0.02252496  0.83895415     1.01100
O95         O  0.62247382  0.99281034  0.83698907    -0.79300
O96         O  0.71609817  0.95284890  0.83972819    -0.79500
C97         C  0.74287644  0.97814856  0.81832003     1.01100
O98         O  0.78261720  0.98527977  0.88842863    -0.86800
O99         O  0.75916845  0.08754170  0.91061187    -0.83900
C100        C  0.74750269  0.13573631  0.90974191     0.96600
O101        O  0.71068208  0.15105702  0.89108225    -0.83900
O102        O  0.63227263  0.09071054  0.91658074    -0.86500
C103        C  0.61667807  0.04732083  0.92853636     1.01100
O104        O  0.61535490  0.00583382  0.91041986    -0.79400
O105        O  0.71005137  0.96659998  0.91274101    -0.79500
C106        C  0.75648160  0.95568675  0.90724008     1.01100
Cr107      Cr  0.76240360  0.05436669  0.86727850     1.93700
Cr108      Cr  0.65467819  0.10439259  0.87055247     1.93200
Cr109      Cr  0.66758656  0.98367453  0.87466395     1.39100
O110        O  0.69434933  0.04700520  0.87014244    -1.24600
O111        O  0.71571166  0.96605319  0.16312762    -0.86800
O112        O  0.62333108  0.00882785  0.16447782    -0.83900
C113        C  0.58441708  0.03705691  0.16023037     0.96600
O114        O  0.59041695  0.08099220  0.14520276    -0.83900
O115        O  0.68187082  0.13834981  0.17383297    -0.86600
C116        C  0.72992708  0.14991168  0.17824765     1.01100
O117        O  0.76293459  0.13474517  0.15645811    -0.79300
O118        O  0.76565471  0.03439266  0.17550920    -0.79500
C119        C  0.74246172  0.99276193  0.18356222     1.01100
O120        O  0.71314292  0.97120780  0.09000035    -0.86800
O121        O  0.61912752  0.01386924  0.09057786    -0.83900
C122        C  0.62085933  0.05378367  0.07131465     0.96600
O123        O  0.63732365  0.09795873  0.08173986    -0.83900
O124        O  0.71591106  0.15978820  0.10613296    -0.86500
C125        C  0.75429407  0.14276682  0.08874734     1.01100
O126        O  0.76348770  0.09401823  0.08791928    -0.79400
O127        O  0.78546443  0.99330746  0.11272713    -0.79500
C128        C  0.75993149  0.96187037  0.09503137     1.01100
Cr129      Cr  0.66944383  0.99427205  0.12719175     1.93700
Cr130      Cr  0.65826737  0.11566809  0.12749843     1.93200
Cr131      Cr  0.76508495  0.06401634  0.13209707     1.39100
O132        O  0.69710445  0.05755627  0.12949578    -1.24600
O133        O  0.24838514  0.96925777  0.83273346    -0.86800
O134        O  0.22216606  0.86715884  0.81058800    -0.83900
C135        C  0.24601309  0.82722351  0.79849748     0.96600
O136        O  0.28591669  0.80868682  0.81305795    -0.83900
O137        O  0.37938404  0.85865130  0.83425257    -0.86600
C138        C  0.40726568  0.89038627  0.85040304     1.01100
O139        O  0.39223764  0.89821284  0.87889690    -0.79300
O140        O  0.33382897  0.96527053  0.83616110    -0.79500
C141        C  0.29314997  0.97254451  0.81934240     1.01100
O142        O  0.20921661  0.94122343  0.89774427    -0.86800
O143        O  0.19259059  0.84239333  0.87571689    -0.83900
C144        C  0.20997990  0.79721860  0.88272722     0.96600
O145        O  0.25717615  0.78387224  0.87862386    -0.83900
O146        O  0.34382875  0.82705095  0.90673305    -0.86500
C147        C  0.33390815  0.85971368  0.93076002     1.01100
O148        O  0.31838199  0.90688734  0.92555350    -0.79400
O149        O  0.27471546  0.99284883  0.89132011    -0.79500
C150        C  0.23029587  0.98515586  0.90292521     1.01100
Cr151      Cr  0.22291066  0.90405507  0.85485271     1.93700
Cr152      Cr  0.31611956  0.82422239  0.85864858     1.93200
Cr153      Cr  0.32708633  0.93790186  0.88179756     1.39100
O154        O  0.28702463  0.88720292  0.86531871    -1.24600
O155        O  0.32911256  0.96706924  0.16580576    -0.86800
O156        O  0.39358014  0.90541885  0.12081427    -0.83900
C157        C  0.40944851  0.89957628  0.14896069     0.96600
O158        O  0.38299497  0.86741040  0.16590657    -0.83900
O159        O  0.29248528  0.81502994  0.18963374    -0.86600
C160        C  0.24627826  0.82395366  0.20027696     1.01100
O161        O  0.21702328  0.85523714  0.18432552    -0.79300
O162        O  0.24255092  0.96184460  0.17097272    -0.79500
C163        C  0.28754604  0.96918733  0.18333283     0.88300
O164        O  0.27365636  0.99578617  0.11247716    -0.86800
O165        O  0.32053242  0.91068187  0.07560338    -0.83900
C166        C  0.33657627  0.86334810  0.07028864     0.96600
O167        O  0.34755893  0.83115800  0.09418217    -0.83900
O168        O  0.26453176  0.78277599  0.12529324    -0.86500
C169        C  0.21980564  0.79450317  0.11456944     1.01100
O170        O  0.20138442  0.84077880  0.11570830    -0.79400
O171        O  0.21044748  0.94371676  0.10255550    -0.79500
C172        C  0.23066117  0.98851600  0.09974219     1.01100
Cr173      Cr  0.32660329  0.94157471  0.11969674     1.93700
Cr174      Cr  0.32134924  0.82833724  0.14301915     1.93200
Cr175      Cr  0.22265002  0.89998964  0.14303936     1.39100
O176        O  0.28874622  0.88864561  0.13519283    -1.24600
O177        O  0.96875281  0.67214108  0.33596787    -0.86800
O178        O  0.03367567  0.59500133  0.33583150    -0.83900
C179        C  0.06239412  0.55886030  0.34429103     0.96600
O180        O  0.10297147  0.57235257  0.36019765    -0.83900
O181        O  0.14410648  0.67231321  0.32555785    -0.86600
C182        C  0.14481530  0.72167142  0.31764855     1.01100
O183        O  0.12023395  0.75444638  0.33610891    -0.79300
O184        O  0.02500636  0.72834474  0.31658922    -0.79500
C185        C  0.99427387  0.69078097  0.31176969     1.01100
O186        O  0.97283444  0.67652825  0.40776302    -0.86800
O187        O  0.03507370  0.59283341  0.41134571    -0.83900
C188        C  0.07182567  0.60571604  0.43081278     0.96600
O189        O  0.10965444  0.63263803  0.41991295    -0.83900
O190        O  0.15292850  0.72029360  0.39092743    -0.86500
C191        C  0.12893892  0.75877292  0.40532901     1.01100
O192        O  0.08026730  0.76300730  0.40311219    -0.79400
O193        O  0.97905451  0.75082654  0.38060290    -0.79500
C194        C  0.95582512  0.72164201  0.40143663     1.01100
Cr195      Cr  0.00603488  0.63579931  0.37252242     1.93700
Cr196      Cr  0.12376586  0.65060038  0.37311425     1.93200
Cr197      Cr  0.05125944  0.74512105  0.36025854     1.39100
O198        O  0.06030875  0.67746047  0.36943558    -1.24600
O199        O  0.01532187  0.72568160  0.68795070    -0.86800
O200        O  0.11116832  0.75403742  0.66796491    -0.83900
C201        C  0.13782275  0.72288759  0.68583852     0.96600
O202        O  0.13743563  0.67306701  0.67899693    -0.83900
O203        O  0.09927894  0.57031318  0.64645628    -0.86600
C204        C  0.05814416  0.55609296  0.66220527     1.01100
O205        O  0.02695244  0.59128652  0.66922833    -0.79300
O206        O  0.96144290  0.66833111  0.66796178    -0.79500
C207        C  0.98574584  0.68694515  0.69238775     1.01100
O208        O  0.97190814  0.74484777  0.62326233    -0.86800
O209        O  0.07337520  0.75937299  0.60113106    -0.83900
C210        C  0.12208653  0.75534217  0.59827001     0.96600
O211        O  0.14646194  0.71805312  0.61307638    -0.83900
O212        O  0.10672820  0.62852890  0.58562492    -0.86500
C213        C  0.06981091  0.60107699  0.57459029     1.01100
O214        O  0.03291737  0.58705810  0.59407699    -0.79400
O215        O  0.96948557  0.66976855  0.59633650    -0.79500
C216        C  0.95128328  0.71478927  0.60196247     1.01100
Cr217      Cr  0.04319063  0.74178116  0.64408083     1.93700
Cr218      Cr  0.11858255  0.64854099  0.63208042     1.93200
Cr219      Cr  0.00112981  0.63088672  0.63218703     1.39100
O220        O  0.05439114  0.67391996  0.63547625    -1.24600
O221        O  0.98968196  0.31287027  0.34559001    -0.86800
O222        O  0.91981919  0.36637055  0.38971428    -0.83900
C223        C  0.91308882  0.38998933  0.36342646     0.96600
O224        O  0.87694592  0.37156929  0.34527959    -0.83900
O225        O  0.82728605  0.28812984  0.31043414    -0.86600
C226        C  0.82529982  0.24242293  0.29753871     1.01100
O227        O  0.85027320  0.20656244  0.31148058    -0.79300
O228        O  0.94433759  0.26848452  0.30631136    -0.79500
C229        C  0.97670287  0.30419436  0.31521628     1.01100
O230        O  0.98200378  0.22740638  0.39772320    -0.86800
O231        O  0.90805902  0.27737173  0.42699172    -0.83900
C232        C  0.86360957  0.29660342  0.43255612     0.96600
O233        O  0.83807023  0.31849661  0.40940727    -0.83900
O234        O  0.81334188  0.22726748  0.37415165    -0.86500
C235        C  0.83887134  0.18395990  0.38134658     1.01100
O236        O  0.88513624  0.17379591  0.37054136    -0.79400
O237        O  0.99132631  0.20472785  0.34790517    -0.79500
C238        C  0.01014810  0.20881527  0.37589854     1.01100
Cr239      Cr  0.94864483  0.29496091  0.38798456     1.93700
Cr240      Cr  0.84130770  0.30051668  0.35984333     1.93200
Cr241      Cr  0.91660929  0.21663147  0.33621180     1.39100
O242        O  0.90160835  0.27014739  0.36179942    -1.24600
O243        O  0.93890080  0.25054498  0.69557642    -0.86800
O244        O  0.84518598  0.19217108  0.68246467    -0.83900
C245        C  0.82308975  0.22632226  0.70001871     0.96600
O246        O  0.82935564  0.27393452  0.69132442    -0.83900
O247        O  0.87939587  0.36151534  0.66120632    -0.86600
C248        C  0.91673846  0.38163218  0.64432935     1.01100
O249        O  0.92429106  0.36105203  0.61704440    -0.79300
O250        O  0.98830116  0.30111422  0.66093065    -0.79500
C251        C  0.97130401  0.28798085  0.69017548     1.01100
O252        O  0.99066741  0.19409766  0.65150015    -0.86800
O253        O  0.88747917  0.16750096  0.62356771    -0.83900
C254        C  0.84112758  0.17833866  0.61399261     0.96600
O255        O  0.81567618  0.22102061  0.62363461    -0.83900
O256        O  0.84327279  0.31616982  0.59427972    -0.86500
C257        C  0.86993394  0.29676709  0.57030909     1.01100
O258        O  0.91496899  0.27826357  0.57489469    -0.79400
O259        O  0.98647771  0.22344096  0.60300967    -0.79500
C260        C  0.01230191  0.20200429  0.62444498     1.01100
Cr261      Cr  0.91495428  0.20417140  0.66143375     1.93700
Cr262      Cr  0.84378277  0.29247454  0.64256893     1.93200
Cr263      Cr  0.95255233  0.28966836  0.61580295     1.39100
O264        O  0.90328214  0.26153674  0.63911904    -1.24600
O265        O  0.94342345  0.67343909  0.80524166    -0.86800
O266        O  0.85070620  0.73668753  0.81218227    -0.83900
C267        C  0.82666537  0.70174008  0.79689404     0.96600
O268        O  0.82718159  0.65574655  0.80920198    -0.83900
O269        O  0.87575626  0.57025432  0.84312168    -0.86600
C270        C  0.91174757  0.55064645  0.86104270     1.01100
O271        O  0.91935273  0.57390082  0.88745064    -0.79300
O272        O  0.98885457  0.62730818  0.84366032    -0.79500
C273        C  0.97555682  0.63697403  0.81340979     1.01100
O274        O  0.99184640  0.73423057  0.84778881    -0.86800
O275        O  0.88678934  0.76708695  0.87119000    -0.83900
C276        C  0.84034023  0.75834865  0.88182371     0.96600
O277        O  0.81397081  0.71583825  0.87413908    -0.83900
O278        O  0.83749176  0.62223987  0.90754002    -0.86500
C279        C  0.86309290  0.64222269  0.93128031     1.01100
O280        O  0.90740436  0.66175387  0.92629451    -0.79400
O281        O  0.98145922  0.71206023  0.89745778    -0.79500
C282        C  0.01002148  0.73023199  0.87591700     1.01100
Cr283      Cr  0.91701810  0.72468597  0.83614416     1.93700
Cr284      Cr  0.84084659  0.64192972  0.85851308     1.93200
Cr285      Cr  0.94816255  0.64492117  0.88673127     1.39100
O286        O  0.90139085  0.67091671  0.86091164    -1.24600
O287        O  0.99541907  0.63266832  0.15633129    -0.86800
O288        O  0.92563490  0.57602476  0.11470666    -0.83900
C289        C  0.91796875  0.55682119  0.14230153     0.96600
O290        O  0.88176440  0.57911644  0.15941749    -0.83900
O291        O  0.83438413  0.66914551  0.18985944    -0.86600
C292        C  0.83393081  0.71655132  0.20001755     1.01100
O293        O  0.85933505  0.74904886  0.18328264    -0.79300
O294        O  0.95020770  0.68495637  0.19264213    -0.79500
C295        C  0.98131638  0.64652681  0.18610694     1.01100
O296        O  0.99283334  0.71016017  0.09885467    -0.86800
O297        O  0.91733493  0.65884773  0.07213815    -0.83900
C298        C  0.87179775  0.64158784  0.06857249     0.96600
O299        O  0.84555404  0.62488714  0.09325503    -0.83900
O300        O  0.82367631  0.72260832  0.12336803    -0.86500
C301        C  0.85037473  0.76436589  0.11433485     1.01100
O302        O  0.89769371  0.77219837  0.12298713    -0.79400
O303        O  0.00161995  0.73875748  0.14739340    -0.79500
C304        C  0.02106661  0.72991916  0.11970521     1.01100
Cr305      Cr  0.95672643  0.64588433  0.11239343     1.93700
Cr306      Cr  0.84871658  0.64964949  0.14126874     1.93200
Cr307      Cr  0.92616256  0.73291859  0.15957635     1.39100
O308        O  0.90994544  0.67672673  0.13710729    -1.24600
O309        O  0.01097458  0.20131205  0.81812277    -0.86800
O310        O  0.10680742  0.17232248  0.83677191    -0.83900
C311        C  0.13201532  0.20408775  0.81829280     0.96600
O312        O  0.13117322  0.25371700  0.82586230    -0.83900
O313        O  0.09098608  0.35518095  0.85952756    -0.86600
C314        C  0.04899252  0.37070233  0.84563080     1.01100
O315        O  0.01554223  0.33732623  0.84013528    -0.79300
O316        O  0.95551984  0.25729088  0.83975198    -0.79500
C317        C  0.98052610  0.23983639  0.81473092     1.01100
O318        O  0.96570613  0.17965371  0.88149266    -0.86800
O319        O  0.06743884  0.16610744  0.90392921    -0.83900
C320        C  0.11606241  0.17036438  0.90625911     0.96600
O321        O  0.14015133  0.20802524  0.89156784    -0.83900
O322        O  0.09984142  0.29723124  0.92055573    -0.86500
C323        C  0.06211033  0.32344094  0.93271949     1.01100
O324        O  0.02404059  0.33617751  0.91438028    -0.79400
O325        O  0.96644031  0.25014320  0.91222595    -0.79500
C326        C  0.94522854  0.20811509  0.90397528     1.01100
Cr327      Cr  0.03813328  0.18393028  0.86127182     1.93700
Cr328      Cr  0.11171338  0.27750764  0.87340645     1.93200
Cr329      Cr  0.99371961  0.29320905  0.87632944     1.39100
O330        O  0.04815774  0.25179921  0.87047849    -1.24600
O331        O  0.96320303  0.26525076  0.17258633    -0.86800
O332        O  0.02505532  0.34501352  0.17111953    -0.83900
C333        C  0.05648967  0.37926897  0.16325280     0.96600
O334        O  0.09784184  0.36366359  0.14793979    -0.83900
O335        O  0.13862781  0.26314754  0.18182378    -0.86600
C336        C  0.13963763  0.21372904  0.18954945     1.01100
O337        O  0.11409912  0.18144836  0.17186439    -0.79300
O338        O  0.01894592  0.21016580  0.19338547    -0.79500
C339        C  0.98880644  0.24896093  0.19713738     1.01100
O340        O  0.97144306  0.25841665  0.10054839    -0.86800
O341        O  0.03001800  0.34322012  0.09652750    -0.83900
C342        C  0.06652156  0.32869870  0.07678517     0.96600
O343        O  0.10454661  0.30242322  0.08774258    -0.83900
O344        O  0.14607572  0.21451527  0.11623624    -0.86500
C345        C  0.12118268  0.17680589  0.10223834     1.01100
O346        O  0.07268452  0.17298261  0.10608280    -0.79400
O347        O  0.97209991  0.18720483  0.13060338    -0.79500
C348        C  0.95167562  0.21537722  0.10836434     1.01100
Cr349      Cr  0.00058271  0.30118823  0.13551957     1.93700
Cr350      Cr  0.11817231  0.28495507  0.13459489     1.93200
Cr351      Cr  0.04477271  0.19193945  0.14939272     1.39100
O352        O  0.05473934  0.25944237  0.13954646    -1.24600
C353        C  0.01648056  0.34311208  0.98804496    -0.14800
C354        C  0.06267457  0.33652681  0.96918192     0.07300
C355        C  0.10992258  0.33466044  0.98644506    -0.14800
C356        C  0.11098399  0.33609119  0.02112306    -0.14800
C357        C  0.06485023  0.33944803  0.04016332     0.07300
C358        C  0.01755369  0.34453508  0.02303345    -0.14800
H359        H  0.97922433  0.34392360  0.97586189     0.11300
H360        H  0.14637061  0.32969221  0.97309244     0.11300
H361        H  0.14820327  0.33210261  0.03313870     0.11300
H362        H  0.98109829  0.34630172  0.03666093     0.11300
C363        C  0.95480119  0.48524155  0.18147843    -0.14800
C364        C  0.95778923  0.51565730  0.15271078     0.07300
C365        C  0.00260507  0.50794426  0.13212947    -0.14800
C366        C  0.04003528  0.46842133  0.13814663    -0.14800
C367        C  0.03459580  0.43467226  0.16512651     0.07300
C368        C  0.99272724  0.44559161  0.18759003    -0.14800
H369        H  0.92227702  0.49033432  0.19841314     0.11300
H370        H  0.00815941  0.53145006  0.11010612     0.11300
H371        H  0.07044063  0.46120782  0.11993043     0.11300
H372        H  0.98690056  0.42031758  0.20874922     0.11300
C373        C  0.02953386  0.45839372  0.87089978    -0.14800
C374        C  0.02920299  0.42639864  0.84275703     0.07300
C375        C  0.99125690  0.43815372  0.81846812    -0.14800
C376        C  0.95270574  0.47794074  0.82338343    -0.14800
C377        C  0.95077856  0.50707772  0.85290653     0.07300
C378        C  0.99115196  0.49741604  0.87594410    -0.14800
H379        H  0.05621675  0.44975980  0.89068663     0.11300
H380        H  0.98878305  0.41331441  0.79670551     0.11300
H381        H  0.92358286  0.48436436  0.80474251     0.11300
H382        H  0.99259865  0.51920795  0.89896343     0.11300
C383        C  0.84483066  0.68900871  0.98348311    -0.14800
C384        C  0.84445066  0.64120749  0.96571011     0.07300
C385        C  0.84205024  0.59312764  0.98299752    -0.14800
C386        C  0.84524863  0.59292086  0.01759041    -0.14800
C387        C  0.85087168  0.64079295  0.03495134     0.07300
C388        C  0.84818713  0.68879657  0.01778747    -0.14800
H389        H  0.84761764  0.72644926  0.97059220     0.11300
H390        H  0.84322446  0.55582088  0.96970711     0.11300
H391        H  0.84835942  0.55547053  0.03038201     0.11300
H392        H  0.85306945  0.72607188  0.03072787     0.11300
C393        C  0.95001398  0.32868239  0.74239057    -0.14800
C394        C  0.98994841  0.31238387  0.72030697     0.07300
C395        C  0.03341559  0.28689167  0.73308743    -0.14800
C396        C  0.02980080  0.26371590  0.76406577    -0.14800
C397        C  0.98437804  0.26964845  0.78362936     0.07300
C398        C  0.94637648  0.30601961  0.77381916    -0.14800
H399        H  0.91654586  0.35004062  0.73318466     0.11300
H400        H  0.06559329  0.27563060  0.71702009     0.11300
H401        H  0.06150477  0.23854122  0.77176174     0.11300
H402        H  0.91242892  0.31376376  0.78919743     0.11300
C403        C  0.96466110  0.34982994  0.26476876    -0.14800
C404        C  0.00119529  0.33173565  0.28784198     0.07300
C405        C  0.04420988  0.30351688  0.27582086    -0.14800
C406        C  0.03917256  0.27516221  0.24650863    -0.14800
C407        C  0.99422887  0.28121223  0.22717667     0.07300
C408        C  0.95913176  0.32208249  0.23508822    -0.14800
H409        H  0.93285229  0.37522659  0.27275712     0.11300
H410        H  0.07569244  0.29322999  0.29214824     0.11300
H411        H  0.06934658  0.24695441  0.23984757     0.11300
H412        H  0.92628783  0.33052330  0.21942827     0.11300
C413        C  0.85581275  0.24725920  0.48432047    -0.14800
C414        C  0.84494635  0.29402311  0.46704632     0.07300
C415        C  0.83055329  0.33981769  0.48488344    -0.14800
C416        C  0.83303782  0.34008361  0.51960547    -0.14800
C417        C  0.85020825  0.29464820  0.53633752     0.07300
C418        C  0.85871170  0.24765292  0.51851807    -0.14800
H419        H  0.86710632  0.21148093  0.47112415     0.11300
H420        H  0.82268587  0.37647630  0.47204373     0.11300
H421        H  0.82654147  0.37681370  0.53295285     0.11300
H422        H  0.87173336  0.21208783  0.53093128     0.11300
C423        C  0.96156749  0.59153641  0.76276440    -0.14800
C424        C  0.99895796  0.60992826  0.78520741     0.07300
C425        C  0.04121689  0.63800142  0.77248103    -0.14800
C426        C  0.03575404  0.66428906  0.74256840    -0.14800
C427        C  0.99082021  0.65715422  0.72342171     0.07300
C428        C  0.95574795  0.61731084  0.73247739    -0.14800
H429        H  0.92996457  0.56683816  0.77143740     0.11300
H430        H  0.07279771  0.64937317  0.78840749     0.11300
H431        H  0.06579706  0.69178832  0.73518795     0.11300
H432        H  0.92278956  0.60807802  0.71712145     0.11300
C433        C  0.00274914  0.42671969  0.63386789    -0.14800
C434        C  0.95766721  0.42164151  0.65447737     0.07300
C435        C  0.95536938  0.45369683  0.68275272    -0.14800
C436        C  0.99405421  0.49261141  0.68811342    -0.14800
C437        C  0.03591841  0.50119940  0.66534640     0.07300
C438        C  0.04082498  0.46557925  0.63909537    -0.14800
H439        H  0.00792673  0.40176592  0.61228844     0.11300
H440        H  0.92281764  0.45050643  0.69979895     0.11300
H441        H  0.98880196  0.51924219  0.70882595     0.11300
H442        H  0.07127388  0.47085118  0.62072465     0.11300
C443        C  0.96059243  0.62597409  0.26979892    -0.14800
C444        C  0.99747552  0.66331657  0.27962587     0.07300
C445        C  0.04164560  0.67141839  0.25936057    -0.14800
C446        C  0.04495383  0.64890935  0.22802713    -0.14800
C447        C  0.00214904  0.62202712  0.21553805     0.07300
C448        C  0.96373774  0.60423415  0.23798344    -0.14800
H449        H  0.92780300  0.61644356  0.28566412     0.11300
H450        H  0.07266645  0.69734381  0.26697423     0.11300
H451        H  0.07604077  0.66150623  0.21167543     0.11300
H452        H  0.93075448  0.58206312  0.22904589     0.11300
C453        C  0.99829843  0.49517862  0.31959351    -0.14800
C454        C  0.03702667  0.50542462  0.34363126     0.07300
C455        C  0.03516031  0.47547542  0.37248812    -0.14800
C456        C  0.99446558  0.43960429  0.37817238    -0.14800
C457        C  0.95380986  0.43131652  0.35515972     0.07300
C458        C  0.95734587  0.45877560  0.32522725    -0.14800
H459        H  0.99750829  0.51854810  0.29725579     0.11300
H460        H  0.06249342  0.48311470  0.39205833     0.11300
H461        H  0.99455553  0.41896634  0.40152484     0.11300
H462        H  0.92787819  0.45349083  0.30668919     0.11300
C463        C  0.11727031  0.59746708  0.48529830    -0.14800
C464        C  0.07127289  0.59173918  0.46709126     0.07300
C465        C  0.02511505  0.58038929  0.48496602    -0.14800
C466        C  0.02465199  0.57894209  0.52002219    -0.14800
C467        C  0.07035413  0.58871217  0.53806464     0.07300
C468        C  0.11683116  0.59592705  0.51988931    -0.14800
H469        H  0.15375568  0.60586438  0.47280048     0.11300
H470        H  0.98878866  0.57597266  0.47201245     0.11300
H471        H  0.98796937  0.57365390  0.53295748     0.11300
H472        H  0.15298833  0.60333162  0.53252347     0.11300
C473        C  0.21873241  0.72387686  0.27241957    -0.14800
C474        C  0.17259065  0.74458813  0.28709394     0.07300
C475        C  0.15295443  0.79179492  0.27311191    -0.14800
C476        C  0.17729974  0.81690976  0.24595699    -0.14800
C477        C  0.22363158  0.79713078  0.23131691     0.07300
C478        C  0.24396698  0.74989230  0.24525374    -0.14800
H479        H  0.23585593  0.68807280  0.28222582     0.11300
H480        H  0.11769895  0.80956980  0.28312532     0.11300
H481        H  0.15935502  0.85244296  0.23633503     0.11300
H482        H  0.27899396  0.73239827  0.23477606     0.11300
C483        C  0.14902999  0.76387639  0.07990717    -0.14800
C484        C  0.18271895  0.75361026  0.10620311     0.07300
C485        C  0.16469894  0.72426939  0.13320902    -0.14800
C486        C  0.11156552  0.71607747  0.13732805    -0.14800
C487        C  0.07681646  0.73413991  0.11346664     0.07300
C488        C  0.09593748  0.75391808  0.08351166    -0.14800
H489        H  0.16241469  0.78658224  0.05886015     0.11300
H490        H  0.19007111  0.71594248  0.15374776     0.11300
H491        H  0.09735243  0.69815023  0.15985147     0.11300
H492        H  0.06952173  0.76592826  0.06427370     0.11300
C493        C  0.14894840  0.03466197  0.08363239    -0.14800
C494        C  0.20314348  0.03468822  0.08613884     0.07300
C495        C  0.23002634  0.08305004  0.08327984    -0.14800
C496        C  0.20294525  0.13103646  0.08431329    -0.14800
C497        C  0.14870270  0.13101426  0.08738334     0.07300
C498        C  0.12182991  0.08269024  0.08386719    -0.14800
H499        H  0.12734670  0.99800984  0.08524094     0.11300
H500        H  0.27212148  0.08405153  0.08413003     0.11300
H501        H  0.22456656  0.16763090  0.08615203     0.11300
H502        H  0.07975879  0.08139003  0.08539080     0.11300
C503        C  0.18617502  0.82727761  0.74858470    -0.14800
C504        C  0.22375503  0.80071323  0.76758925     0.07300
C505        C  0.23405302  0.74713146  0.75879198    -0.14800
C506        C  0.20696001  0.72121956  0.73269799    -0.14800
C507        C  0.16876754  0.74799805  0.71409873     0.07300
C508        C  0.15980573  0.80184922  0.72255787    -0.14800
H509        H  0.17624085  0.86810105  0.75419778     0.11300
H510        H  0.26196743  0.72453678  0.77282218     0.11300
H511        H  0.21575065  0.68010131  0.72726112     0.11300
H512        H  0.13119887  0.82475832  0.70928086     0.11300
C513        C  0.15457753  0.72737877  0.86431829    -0.14800
C514        C  0.17041403  0.75867638  0.89091990     0.07300
C515        C  0.13428635  0.77235159  0.91582864    -0.14800
C516        C  0.08162221  0.76136993  0.91168142    -0.14800
C517        C  0.06511527  0.73775839  0.88232218     0.07300
C518        C  0.10190230  0.71820846  0.85957280    -0.14800
H519        H  0.18174758  0.71720440  0.84460729     0.11300
H520        H  0.14582300  0.79732683  0.93624856     0.11300
H521        H  0.05356431  0.77496114  0.93002116     0.11300
H522        H  0.08969225  0.69780892  0.83748689     0.11300
C523        C  0.38117327  0.87679823  0.98242650    -0.14800
C524        C  0.34459690  0.84614728  0.96552970     0.07300
C525        C  0.31071771  0.81366870  0.98385963    -0.14800
C526        C  0.31134519  0.81474553  0.01864099    -0.14800
C527        C  0.34578226  0.84838268  0.03536318     0.07300
C528        C  0.38171429  0.87795865  0.01689016    -0.14800
H529        H  0.40681058  0.90308756  0.96890066     0.11300
H530        H  0.28105232  0.79102499  0.97142795     0.11300
H531        H  0.28219987  0.79282654  0.03235548     0.11300
H532        H  0.40778673  0.90504063  0.02917572     0.11300
C533        C  0.22748184  0.07918926  0.92097659    -0.14800
C534        C  0.20182684  0.03029561  0.91758305     0.07300
C535        C  0.14765728  0.02863110  0.92101621    -0.14800
C536        C  0.11925878  0.07577410  0.92248012    -0.14800
C537        C  0.14479909  0.12491779  0.91974760     0.07300
C538        C  0.19907929  0.12636400  0.92170476    -0.14800
H539        H  0.26950445  0.08144071  0.91930686     0.11300
H540        H  0.12698746  0.99149138  0.91897135     0.11300
H541        H  0.07723798  0.07335407  0.92160673     0.11300
H542        H  0.21965919  0.16364696  0.92031399     0.11300
C543        C  0.74389510  0.21404059  0.26557421    -0.14800
C544        C  0.79693063  0.22901978  0.26585596     0.07300
C545        C  0.82569021  0.22047586  0.23654191    -0.14800
C546        C  0.80298911  0.19734919  0.20834927    -0.14800
C547        C  0.75036308  0.18078269  0.20804249     0.07300
C548        C  0.72092386  0.19065680  0.23714523    -0.14800
H549        H  0.72065805  0.21829913  0.28787822     0.11300
H550        H  0.86675543  0.22996131  0.23579270     0.11300
H551        H  0.82765783  0.19087921  0.18685945     0.11300
H552        H  0.68067431  0.17835400  0.23845615     0.11300
C553        C  0.80723942  0.22086773  0.10080581    -0.14800
C554        C  0.79827708  0.17716944  0.08022041     0.07300
C555        C  0.84073840  0.15403302  0.06296144    -0.14800
C556        C  0.89159775  0.16669111  0.07157973    -0.14800
C557        C  0.89993498  0.20447970  0.09610676     0.07300
C558        C  0.85802266  0.23408729  0.10895892    -0.14800
H559        H  0.77550810  0.23979073  0.11424530     0.11300
H560        H  0.83474890  0.12087015  0.04640274     0.11300
H561        H  0.92399613  0.14525073  0.06048181     0.11300
H562        H  0.86447902  0.26488125  0.12714612     0.11300
C563        C  0.48954533  0.02536450  0.14852558    -0.14800
C564        C  0.53280725  0.01173934  0.16729539     0.07300
C565        C  0.53037393  0.96404071  0.18581498    -0.14800
C566        C  0.48845596  0.92835385  0.18264767    -0.14800
C567        C  0.44808969  0.93965835  0.16082648     0.07300
C568        C  0.44805322  0.98996241  0.14535289    -0.14800
H569        H  0.48986751  0.06098445  0.13371899     0.11300
H570        H  0.56312741  0.95209113  0.20066230     0.11300
H571        H  0.48981013  0.89051450  0.19509258     0.11300
H572        H  0.41710065  0.00073373  0.12871645     0.11300
C573        C  0.83471190  0.90203842  0.08221025    -0.14800
C574        C  0.78116838  0.90928734  0.08665287     0.07300
C575        C  0.74924353  0.86470565  0.09146400    -0.14800
C576        C  0.77135008  0.81481664  0.09687803    -0.14800
C577        C  0.82554437  0.80895540  0.09683309     0.07300
C578        C  0.85664427  0.85194474  0.08653026    -0.14800
H579        H  0.85993914  0.93571717  0.07820399     0.11300
H580        H  0.70763801  0.86941739  0.09504201     0.11300
H581        H  0.74640832  0.78248281  0.10439261     0.11300
H582        H  0.89863388  0.84834523  0.08527729     0.11300
C583        C  0.74072771  0.13824267  0.75722522    -0.14800
C584        C  0.74480205  0.16310866  0.78819778     0.07300
C585        C  0.77223720  0.21149650  0.78949999    -0.14800
C586        C  0.79464124  0.23431747  0.76073149    -0.14800
C587        C  0.79201755  0.20840829  0.72992781     0.07300
C588        C  0.76451307  0.16004354  0.72878927    -0.14800
H589        H  0.72127304  0.10040227  0.75527469     0.11300
H590        H  0.77716994  0.23127134  0.81300237     0.11300
H591        H  0.81639783  0.27076212  0.76293093     0.11300
H592        H  0.76230073  0.13826235  0.70577557     0.11300
C593        C  0.82526167  0.15103338  0.94318133    -0.14800
C594        C  0.78731990  0.17209040  0.92191588     0.07300
C595        C  0.80051447  0.21497651  0.90173080    -0.14800
C596        C  0.85261148  0.22868192  0.89771838    -0.14800
C597        C  0.89137825  0.20027533  0.91425109     0.07300
C598        C  0.87759871  0.16397557  0.93864178    -0.14800
H599        H  0.81567512  0.11854001  0.95951058     0.11300
H600        H  0.77220341  0.23225719  0.88530098     0.11300
H601        H  0.86302601  0.25819409  0.87949578     0.11300
H602        H  0.90722187  0.14319301  0.95237807     0.11300
C603        C  0.53139639  0.94900475  0.81329405    -0.14800
C604        C  0.53290257  0.99833515  0.83033822     0.07300
C605        C  0.48810089  0.01493857  0.84721799    -0.14800
C606        C  0.44606280  0.98053247  0.85091785    -0.14800
C607        C  0.44657091  0.92876178  0.83719573     0.07300
C608        C  0.48853209  0.91449565  0.81663883    -0.14800
H609        H  0.56544907  0.93489080  0.79987688     0.11300
H610        H  0.48770511  0.05197164  0.86081610     0.11300
H611        H  0.41450475  0.99329795  0.86704026     0.11300
H612        H  0.49040193  0.87531259  0.80571306     0.11300
C613        C  0.60952765  0.99881943  0.98335448    -0.14800
C614        C  0.60392508  0.04566446  0.96483296     0.07300
C615        C  0.59578149  0.09340208  0.98231837    -0.14800
C616        C  0.59721177  0.09508371  0.01692321    -0.14800
C617        C  0.60665900  0.04906409  0.03548360     0.07300
C618        C  0.61082422  0.00049374  0.01823245    -0.14800
H619        H  0.61668937  0.96142007  0.97088934     0.11300
H620        H  0.59130795  0.13034304  0.96912701     0.11300
H621        H  0.59367322  0.13320874  0.02911544     0.11300
H622        H  0.61878486  0.96428165  0.03152824     0.11300
C623        C  0.84938062  0.84339209  0.91204780    -0.14800
C624        C  0.81681851  0.80211357  0.90117829     0.07300
C625        C  0.76283292  0.80905198  0.90312969    -0.14800
C626        C  0.74230242  0.85912842  0.91065502    -0.14800
C627        C  0.77572805  0.90258716  0.91537493     0.07300
C628        C  0.82906007  0.89365727  0.91834335    -0.14800
H629        H  0.89129055  0.83859584  0.91207498     0.11300
H630        H  0.73686598  0.77778294  0.89548237     0.11300
H631        H  0.70073614  0.86517757  0.90840010     0.11300
H632        H  0.85536418  0.92640646  0.92233397     0.11300
C633        C  0.23190173  0.17660300  0.74574380    -0.14800
C634        C  0.21601358  0.12642081  0.73350206     0.07300
C635        C  0.17194504  0.10422636  0.74922208    -0.14800
C636        C  0.14582091  0.12984670  0.77590496    -0.14800
C637        C  0.16128908  0.17989126  0.78828780     0.07300
C638        C  0.20494834  0.20293979  0.77235940    -0.14800
H639        H  0.26475442  0.19620610  0.73427627     0.11300
H640        H  0.15720385  0.06647173  0.74079630     0.11300
H641        H  0.11252220  0.11014701  0.78680271     0.11300
H642        H  0.21878211  0.24108992  0.78070206     0.11300
C643        C  0.10148493  0.20728944  0.64550175    -0.14800
C644        C  0.06803435  0.19484662  0.61964629     0.07300
C645        C  0.08854673  0.17884279  0.58900122    -0.14800
C646        C  0.14152150  0.16751568  0.58594193    -0.14800
C647        C  0.17393368  0.17378331  0.61325839     0.07300
C648        C  0.15457613  0.19825569  0.64195775    -0.14800
H649        H  0.08628362  0.22186108  0.66885573     0.11300
H650        H  0.06314227  0.17106373  0.56842646     0.11300
H651        H  0.15589745  0.14789836  0.56380505     0.11300
H652        H  0.17894149  0.20256900  0.66345320     0.11300
C653        C  0.24719343  0.96618399  0.73343519    -0.14800
C654        C  0.29300967  0.95428825  0.71577853     0.07300
C655        C  0.34077854  0.95317663  0.73224412    -0.14800
C656        C  0.34213517  0.96302337  0.76615691    -0.14800
C657        C  0.29591405  0.97543660  0.78346001     0.07300
C658        C  0.24886489  0.97826303  0.76651519    -0.14800
H659        H  0.20975547  0.96836824  0.72151303     0.11300
H660        H  0.37679853  0.94527307  0.71894392     0.11300
H661        H  0.37878454  0.95951450  0.77889414     0.11300
H662        H  0.21247725  0.98734276  0.77912021     0.11300
C663        C  0.15134994  0.89674372  0.57914276    -0.14800
C664        C  0.20550361  0.89607525  0.58232739     0.07300
C665        C  0.23211978  0.84714922  0.57998835    -0.14800
C666        C  0.20467922  0.79957515  0.58097987    -0.14800
C667        C  0.15032547  0.80045022  0.58347277     0.07300
C668        C  0.12390862  0.84911193  0.57934341    -0.14800
H669        H  0.12987737  0.93376041  0.58019172     0.11300
H670        H  0.27416151  0.84543496  0.58131293     0.11300
H671        H  0.22603941  0.76268482  0.58321877     0.11300
H672        H  0.08181820  0.85109258  0.58034415     0.11300
C673        C  0.18550072  0.11250893  0.25462618    -0.14800
C674        C  0.22360428  0.13900848  0.27304367     0.07300
C675        C  0.23456494  0.19194307  0.26356272    -0.14800
C676        C  0.20786991  0.21717352  0.23705022    -0.14800
C677        C  0.16967746  0.19013987  0.21866745     0.07300
C678        C  0.15970693  0.13711775  0.22814193    -0.14800
H679        H  0.17511830  0.07220994  0.26086761     0.11300
H680        H  0.26277980  0.21450699  0.27730224     0.11300
H681        H  0.21718249  0.25778101  0.23099122     0.11300
H682        H  0.13085824  0.11414751  0.21520719     0.11300
C683        C  0.13542391  0.17409623  0.41797445    -0.14800
C684        C  0.17118929  0.18142575  0.39200045     0.07300
C685        C  0.15466014  0.20515026  0.36271717    -0.14800
C686        C  0.10186897  0.21313178  0.35737542    -0.14800
C687        C  0.06546100  0.20051701  0.38202078     0.07300
C688        C  0.08267699  0.18441546  0.41314253    -0.14800
H689        H  0.14743109  0.15484602  0.44049855     0.11300
H690        H  0.18150669  0.21009778  0.34214085     0.11300
H691        H  0.08934583  0.22748595  0.33363016     0.11300
H692        H  0.05505995  0.17631795  0.43284667     0.11300
C693        C  0.25371631  0.94366823  0.27110188    -0.14800
C694        C  0.29924515  0.95849259  0.28724660     0.07300
C695        C  0.34178244  0.97776697  0.26892515    -0.14800
C696        C  0.33786333  0.98368458  0.23483170    -0.14800
C697        C  0.29101820  0.97149754  0.21915052     0.07300
C698        C  0.24914938  0.95144041  0.23764381    -0.14800
H699        H  0.22027678  0.92885562  0.28466533     0.11300
H700        H  0.37687313  0.99063511  0.28106201     0.11300
H701        H  0.37104488  0.99800467  0.22083767     0.11300
H702        H  0.21290958  0.94037374  0.22621224     0.11300
C703        C  0.29984477  0.11855895  0.48698610    -0.14800
C704        C  0.34197614  0.09790063  0.46861658     0.07300
C705        C  0.38578506  0.07892080  0.48529752    -0.14800
C706        C  0.38588236  0.07677099  0.51979348    -0.14800
C707        C  0.34217993  0.09360322  0.53811226     0.07300
C708        C  0.29995990  0.11644825  0.52157677    -0.14800
H709        H  0.26505038  0.13184077  0.47458006     0.11300
H710        H  0.41802203  0.06145006  0.47157563     0.11300
H711        H  0.41820429  0.05776628  0.53202941     0.11300
H712        H  0.26527257  0.12824019  0.53522773     0.11300
C713        C  0.23832879  0.85343478  0.41791681    -0.14800
C714        C  0.21060916  0.90183244  0.41787035     0.07300
C715        C  0.15676621  0.90122103  0.42325116    -0.14800
C716        C  0.13041151  0.85297728  0.42390601    -0.14800
C717        C  0.15747790  0.80485849  0.41839947     0.07300
C718        C  0.21192434  0.80527851  0.41782751    -0.14800
H719        H  0.28020398  0.85264735  0.41460212     0.11300
H720        H  0.13452646  0.93778594  0.42379116     0.11300
H721        H  0.08830007  0.85399700  0.42504635     0.11300
H722        H  0.23386455  0.76893628  0.41414746     0.11300
C723        C  0.81083243  0.76734732  0.71275429    -0.14800
C724        C  0.75675269  0.76649634  0.70688541     0.07300
C725        C  0.72566776  0.73858243  0.73002211    -0.14800
C726        C  0.74798729  0.71390257  0.75822410    -0.14800
C727        C  0.80199219  0.71689190  0.76435945     0.07300
C728        C  0.83268061  0.74373934  0.74085990    -0.14800
H729        H  0.83669782  0.78802387  0.69598717     0.11300
H730        H  0.68400589  0.73658872  0.72666886     0.11300
H731        H  0.72268629  0.69466105  0.77597188     0.11300
H732        H  0.87413210  0.74769862  0.74471017     0.11300
C733        C  0.80768671  0.71740366  0.58995927    -0.14800
C734        C  0.80153147  0.76773715  0.57599754     0.07300
C735        C  0.84550588  0.79304512  0.56216855    -0.14800
C736        C  0.89536327  0.77445753  0.56899388    -0.14800
C737        C  0.90133355  0.72842103  0.58746285     0.07300
C738        C  0.85763127  0.69770128  0.59555167    -0.14800
H739        H  0.77468361  0.69665930  0.60046848     0.11300
H740        H  0.84186137  0.83131333  0.55038602     0.11300
H741        H  0.92892925  0.79771501  0.56184696     0.11300
H742        H  0.86202297  0.66131094  0.60935718     0.11300
C743        C  0.69743446  0.97487643  0.73263888    -0.14800
C744        C  0.74460633  0.97141434  0.71522746     0.07300
C745        C  0.79135136  0.96492803  0.73230781    -0.14800
C746        C  0.79076252  0.96195995  0.76655399    -0.14800
C747        C  0.74328610  0.96340710  0.78385703     0.07300
C748        C  0.69671752  0.96995765  0.76672853    -0.14800
H749        H  0.66089436  0.97837414  0.71979368     0.11300
H750        H  0.82798601  0.96074193  0.71903320     0.11300
H751        H  0.82721675  0.95967608  0.77963993     0.11300
H752        H  0.65997349  0.97393826  0.77977778     0.11300
C753        C  0.53063110  0.97423660  0.68657433    -0.14800
C754        C  0.53401698  0.92587049  0.66856466     0.07300
C755        C  0.49087018  0.91050044  0.65029054    -0.14800
C756        C  0.44844060  0.94495433  0.64694577    -0.14800
C757        C  0.44719404  0.99564597  0.66210356     0.07300
C758        C  0.48761346  0.00879882  0.68341162    -0.14800
H759        H  0.56335564  0.98755387  0.70094232     0.11300
H760        H  0.49199085  0.87429196  0.63586383     0.11300
H761        H  0.41779786  0.93312098  0.63039440     0.11300
H762        H  0.48808391  0.04721164  0.69538194     0.11300
C763        C  0.73989617  0.08090979  0.58801127    -0.14800
C764        C  0.77213526  0.03627740  0.58254339     0.07300
C765        C  0.82547813  0.04367684  0.57760487    -0.14800
C766        C  0.84713582  0.09343649  0.58288019    -0.14800
C767        C  0.81601808  0.13594005  0.59460240     0.07300
C768        C  0.76181585  0.13054202  0.59443159    -0.14800
H769        H  0.69838142  0.07619611  0.59175739     0.11300
H770        H  0.85098613  0.01008336  0.57298937     0.11300
H771        H  0.88911187  0.09681607  0.58159258     0.11300
H772        H  0.73683626  0.16266158  0.60282910     0.11300
C773        C  0.73269150  0.74340526  0.27066387    -0.14800
C774        C  0.75785439  0.78330914  0.28913835     0.07300
C775        C  0.80764496  0.79885656  0.27801975    -0.14800
C776        C  0.83125375  0.77641298  0.24976191    -0.14800
C777        C  0.80708808  0.73611837  0.23142287     0.07300
C778        C  0.75727596  0.71963345  0.24243341    -0.14800
H779        H  0.69449203  0.72999680  0.27829909     0.11300
H780        H  0.82856503  0.82939922  0.29112692     0.11300
H781        H  0.86923153  0.79072034  0.24224917     0.11300
H782        H  0.73683971  0.68936611  0.22882084     0.11300
C783        C  0.84533208  0.80043618  0.43771127    -0.14800
C784        C  0.80305641  0.77565502  0.42198562     0.07300
C785        C  0.81089935  0.72591534  0.40723148    -0.14800
C786        C  0.86137962  0.70596222  0.40339011    -0.14800
C787        C  0.90410103  0.73588102  0.41389010     0.07300
C788        C  0.89590698  0.78163321  0.43263703    -0.14800
H789        H  0.84028014  0.83835750  0.44998696     0.11300
H790        H  0.77929051  0.70576752  0.39507685     0.11300
H791        H  0.86743055  0.66992198  0.38920900     0.11300
H792        H  0.92854428  0.80441582  0.44148945     0.11300
C793        C  0.78817393  0.98810205  0.27006715    -0.14800
C794        C  0.74058264  0.98618524  0.28714319     0.07300
C795        C  0.69403127  0.98231053  0.26970752    -0.14800
C796        C  0.69516063  0.97872692  0.23546712    -0.14800
C797        C  0.74279129  0.98031063  0.21839394     0.07300
C798        C  0.78921155  0.98605158  0.23582380    -0.14800
H799        H  0.82450912  0.98915488  0.28333741     0.11300
H800        H  0.65712544  0.97882569  0.28258745     0.11300
H801        H  0.65881434  0.97666375  0.22232074     0.11300
H802        H  0.82611465  0.98949317  0.22283482     0.11300
C803        C  0.49190524  0.92280951  0.35490075    -0.14800
C804        C  0.53444614  0.93601537  0.33493690     0.07300
C805        C  0.53095799  0.98300706  0.31581787    -0.14800
C806        C  0.48885209  0.01879910  0.31968985    -0.14800
C807        C  0.44952699  0.00823642  0.34285926     0.07300
C808        C  0.45039640  0.95840884  0.35890946    -0.14800
H809        H  0.49316849  0.88779536  0.37023691     0.11300
H810        H  0.56324982  0.99456542  0.30009522     0.11300
H811        H  0.48937300  0.05622208  0.30674000     0.11300
H812        H  0.42024739  0.94818991  0.37662312     0.11300
C813        C  0.59776262  0.84338686  0.48358079    -0.14800
C814        C  0.60408923  0.89132459  0.46644031     0.07300
C815        C  0.60466777  0.93871693  0.48498760    -0.14800
C816        C  0.60415463  0.93751623  0.51981893    -0.14800
C817        C  0.60301020  0.88889841  0.53679896     0.07300
C818        C  0.59717366  0.84220368  0.51813432    -0.14800
H819        H  0.59672657  0.80613458  0.47025682     0.11300
H820        H  0.60982592  0.97635613  0.47268484     0.11300
H821        H  0.60902615  0.97423718  0.53331123     0.11300
H822        H  0.59575471  0.80405739  0.53024195     0.11300
C823        C  0.73934952  0.08580283  0.40970773    -0.14800
C824        C  0.77243987  0.04324673  0.41772832     0.07300
C825        C  0.82539756  0.05253818  0.42227178    -0.14800
C826        C  0.84611322  0.10177231  0.41435212    -0.14800
C827        C  0.81429353  0.14160058  0.40081466     0.07300
C828        C  0.76028909  0.13478100  0.40088841    -0.14800
H829        H  0.69824475  0.07925436  0.40580483     0.11300
H830        H  0.85143486  0.02030115  0.42851356     0.11300
H831        H  0.88789658  0.10670324  0.41555335     0.11300
H832        H  0.73494059  0.16495990  0.39087647     0.11300
loop_ 
_geom_bond_atom_site_label_1 
_geom_bond_atom_site_label_2 
_geom_bond_distance 
_geom_bond_site_symmetry_2 
_ccdc_geom_bond_type 
O1          Cr19   2.019       .  S
O1            C9   1.273       .  A
O2          Cr19   1.939       .  S
O2            C3   1.239       .  A
C3            O4   1.278       .  A
C3          C804   1.495       .  S
O4          Cr20   2.078       .  S
O5          Cr20   2.047       .  S
O5            C6   1.280       .  A
C6            O7   1.273       .  A
C6          C774   1.523       .  S
O7          Cr21   2.029       .  S
O8          Cr21   1.918       .  S
O8            C9   1.254       .  A
C9          C794   1.445       .  S
O10         Cr19   1.957       .  S
O10          C18   1.245       .  A
O11         Cr19   2.035       .  S
O11          C12   1.275       .  A
C12          O13   1.265       .  A
C12         C814   1.499       .  S
O13         Cr20   1.981       .  S
O14         Cr20   2.055       .  S
O14          C15   1.280       .  A
C15          O16   1.252       .  A
C15         C784   1.474       .  S
O16         Cr21   1.942       .  S
O17         Cr21   2.003       .  S
O17          C18   1.260       .  A
C18         C824   1.463   1_565  S
Cr19         O22   1.757       .  S
Cr20         O22   1.773       .  S
Cr21         O22   1.756       .  S
O23         Cr41   1.918       .  S
O23          C31   1.253       .  A
O24         Cr41   2.042       .  S
O24          C25   1.277       .  A
C25          O26   1.281       .  A
C25         C724   1.529       .  S
O26         Cr42   2.043       .  S
O27         Cr42   2.073       .  S
O27          C28   1.275       .  A
C28          O29   1.239       .  A
C28         C754   1.496       .  S
O29         Cr43   1.944       .  S
O30         Cr43   2.016       .  S
O30          C31   1.273       .  A
C31         C744   1.447       .  S
O32         Cr41   2.012       .  S
O32          C40   1.263       .  A
O33         Cr41   1.948       .  S
O33          C34   1.251       .  A
C34          O35   1.277       .  A
C34         C734   1.473       .  S
O35         Cr42   2.047       .  S
O36         Cr42   1.975       .  S
O36          C37   1.265       .  A
C37          O38   1.278       .  A
C37         C817   1.499       .  S
O38         Cr43   2.041       .  S
O39         Cr43   1.957       .  S
O39          C40   1.246       .  A
C40         C764   1.472   1_565  S
Cr41         O44   1.755       .  S
Cr42         O44   1.777       .  S
Cr43         O44   1.757       .  S
O45         Cr63   1.982   1_565  S
O45          C53   1.275       .  A
O46         Cr63   1.946       .  S
O46          C47   1.225       .  A
C47          O48   1.260       .  A
C47         C807   1.500       .  S
O48         Cr64   2.091       .  S
O49         Cr64   2.038       .  S
O49          C50   1.274       .  A
C50          O51   1.272       .  A
C50         C674   1.533       .  S
O51         Cr65   2.028       .  S
O52         Cr65   1.989   1_565  S
O52          C53   1.276       .  A
C53         C694   1.454       .  S
O54         Cr63   1.956   1_565  S
O54          C62   1.241       .  A
O55         Cr63   1.955       .  S
O55          C56   1.277       .  A
C56          O57   1.297       .  A
C56         C704   1.473       .  S
O57         Cr64   2.080       .  S
O58         Cr64   2.000       .  S
O58          C59   1.268       .  A
C59          O60   1.258       .  A
C59         C684   1.449       .  S
O60         Cr65   1.941       .  S
O61         Cr65   2.008   1_565  S
O61          C62   1.254       .  A
C62         C714   1.476       .  S
Cr63         O66   1.770       .  S
Cr64         O66   1.770       .  S
Cr65         O66   1.750       .  S
O67         Cr85   1.994   1_565  S
O67          C75   1.275       .  A
O68         Cr85   2.035       .  S
O68          C69   1.273       .  A
C69          O70   1.276       .  A
C69         C634   1.545       .  S
O70         Cr86   2.047       .  S
O71         Cr86   2.083       .  S
O71          C72   1.262       .  A
C72          O73   1.229       .  A
C72         C757   1.497   1_545  S
O73         Cr87   1.949   1_545  S
O74         Cr87   1.981       .  S
O74          C75   1.273       .  A
C75         C654   1.458       .  S
O76         Cr85   2.009   1_565  S
O76          C84   1.254       .  A
O77         Cr85   1.941       .  S
O77          C78   1.259       .  A
C78          O79   1.266       .  A
C78         C647   1.444       .  S
O79         Cr86   1.991       .  S
O80         Cr86   2.074       .  S
O80          C81   1.295       .  A
C81          O82   1.277       .  A
C81         C707   1.473       .  S
O82         Cr87   1.957   1_545  S
O83         Cr87   1.960       .  S
O83          C84   1.243       .  A
C84         C664   1.478       .  S
Cr85         O88   1.754       .  S
Cr86         O88   1.772       .  S
Cr87         O88   1.779   1_565  S
O89        Cr107   1.913       .  S
O89          C97   1.253   1_545  A
O90        Cr107   2.047       .  S
O90          C91   1.275       .  A
C91          O92   1.278       .  A
C91         C584   1.513       .  S
O92        Cr108   2.034       .  S
O93        Cr108   2.068       .  S
O93          C94   1.276       .  A
C94          O95   1.240   1_545  A
C94         C604   1.495   1_545  S
O95        Cr109   1.942       .  S
O96        Cr109   2.026       .  S
O96          C97   1.277       .  A
C97         C747   1.444       .  S
O98        Cr107   2.015   1_565  S
O98         C106   1.260       .  A
O99        Cr107   1.944       .  S
O99         C100   1.252       .  A
C100        O101   1.278       .  A
C100        C594   1.467       .  S
O101       Cr108   2.047       .  S
O102       Cr108   1.979       .  S
O102        C103   1.265       .  A
C103        O104   1.277       .  A
C103        C614   1.505       .  S
O104       Cr109   2.039   1_545  S
O105       Cr109   1.949       .  S
O105        C106   1.241       .  A
C106        C627   1.466       .  S
Cr107       O110   1.762       .  S
Cr108       O110   1.767       .  S
Cr109       O110   1.753   1_565  S
O111       Cr129   2.021       .  S
O111        C119   1.276       .  A
O112       Cr129   1.943   1_545  S
O112        C113   1.239       .  A
C113        O114   1.277       .  A
C113        C564   1.500       .  S
O114       Cr130   2.077       .  S
O115       Cr130   2.061       .  S
O115        C116   1.285       .  A
C116        O117   1.274       .  A
C116        C547   1.534       .  S
O117       Cr131   2.037       .  S
O118       Cr131   1.915       .  S
O118        C119   1.253   1_545  A
C119        C797   1.448       .  S
O120       Cr129   1.955       .  S
O120        C128   1.244       .  A
O121       Cr129   2.041   1_545  S
O121        C122   1.278       .  A
C122        O123   1.267       .  A
C122        C617   1.507       .  S
O123       Cr130   1.988       .  S
O124       Cr130   2.045       .  S
O124        C125   1.277       .  A
C125        O126   1.252       .  A
C125        C554   1.468       .  S
O126       Cr131   1.948       .  S
O127       Cr131   2.011   1_565  S
O127        C128   1.260       .  A
C128        C574   1.469       .  S
Cr129       O132   1.754   1_565  S
Cr130       O132   1.773       .  S
Cr131       O132   1.760       .  S
O133       Cr151   1.988       .  S
O133        C141   1.270       .  A
O134       Cr151   2.019       .  S
O134        C135   1.271       .  A
C135        O136   1.277       .  A
C135        C504   1.536       .  S
O136       Cr152   2.050       .  S
O137       Cr152   2.088       .  S
O137        C138   1.264       .  A
C138        O139   1.229       .  A
C138        C607   1.499       .  S
O139       Cr153   1.949       .  S
O140       Cr153   1.984       .  S
O140        C141   1.268       .  A
C141        C657   1.458       .  S
O142       Cr151   1.999       .  S
O142        C150   1.255       .  A
O143       Cr151   1.937       .  S
O143        C144   1.257       .  A
C144        O145   1.266       .  A
C144        C514   1.448       .  S
O145       Cr152   1.996       .  S
O146       Cr152   2.085       .  S
O146        C147   1.296       .  A
C147        O148   1.273       .  A
C147        C524   1.481       .  S
O148       Cr153   1.953       .  S
O149       Cr153   1.962       .  S
O149        C150   1.246       .  A
C150        C534   1.471   1_565  S
Cr151       O154   1.757       .  S
Cr152       O154   1.772       .  S
Cr153       O154   1.780       .  S
O155       Cr173   1.977       .  S
O155        C163   1.277       .  A
O156       Cr173   1.945       .  S
O156        C157   1.226       .  A
C157        O158   1.262       .  A
C157        C567   1.503       .  S
O158       Cr174   2.095       .  S
O159       Cr174   2.052       .  S
O159        C160   1.277       .  A
C160        O161   1.271       .  A
C160        C477   1.541       .  S
O161       Cr175   2.027       .  S
O162       Cr175   1.997       .  S
O162        C163   1.280       .  A
C163        C697   1.457       .  S
O164       Cr173   1.950       .  S
O164        C172   1.239       .  A
O165       Cr173   1.956       .  S
O165        C166   1.278       .  A
C166        O167   1.300       .  A
C166        C527   1.480       .  S
O167       Cr174   2.086       .  S
O168       Cr174   2.002       .  S
O168        C169   1.268       .  A
C169        O170   1.259       .  A
C169        C484   1.450       .  S
O170       Cr175   1.942       .  S
O171       Cr175   2.009       .  S
O171        C172   1.252       .  A
C172        C494   1.473   1_565  S
Cr173       O176   1.770       .  S
Cr174       O176   1.765       .  S
Cr175       O176   1.747       .  S
O177       Cr195   1.998   1_655  S
O177        C185   1.267       .  A
O178       Cr195   1.932       .  S
O178        C179   1.223       .  A
C179        O180   1.280       .  A
C179        C454   1.501       .  S
O180       Cr196   2.114       .  S
O181       Cr196   2.069       .  S
O181        C182   1.288       .  A
C182        O183   1.274       .  A
C182        C474   1.539       .  S
O183       Cr197   2.030       .  S
O184       Cr197   1.948       .  S
O184        C185   1.253   1_455  A
C185        C444   1.475       .  S
O186       Cr195   1.943   1_655  S
O186        C194   1.246       .  A
O187       Cr195   2.060       .  S
O187        C188   1.280       .  A
C188        O189   1.266       .  A
C188        C464   1.514       .  S
O189       Cr196   1.983       .  S
O190       Cr196   2.048       .  S
O190        C191   1.283       .  A
C191        O192   1.259       .  A
C191        C717   1.478       .  S
O192       Cr197   1.951       .  S
O193       Cr197   2.026   1_655  S
O193        C194   1.269       .  A
C194        C787   1.459       .  S
Cr195       O198   1.755       .  S
Cr196       O198   1.771       .  S
Cr197       O198   1.764       .  S
O199       Cr217   1.955       .  S
O199        C207   1.254   1_455  A
O200       Cr217   2.032       .  S
O200        C201   1.274       .  A
C201        O202   1.287       .  A
C201        C507   1.539       .  S
O202       Cr218   2.062       .  S
O203       Cr218   2.121       .  S
O203        C204   1.282       .  A
C204        O205   1.224       .  A
C204        C437   1.507       .  S
O205       Cr219   1.930       .  S
O206       Cr219   1.996   1_655  S
O206        C207   1.267       .  A
C207        C427   1.475       .  S
O208       Cr217   2.027   1_655  S
O208        C216   1.270       .  A
O209       Cr217   1.952       .  S
O209        C210   1.260       .  A
C210        O211   1.283       .  A
C210        C667   1.479       .  S
O211       Cr218   2.049       .  S
O212       Cr218   1.976       .  S
O212        C213   1.263       .  A
C213        O214   1.279       .  A
C213        C467   1.512       .  S
O214       Cr219   2.056       .  S
O215       Cr219   1.941   1_655  S
O215        C216   1.246       .  A
C216        C737   1.458       .  S
Cr217       O220   1.768       .  S
Cr218       O220   1.770       .  S
Cr219       O220   1.758       .  S
O221       Cr239   2.059       .  S
O221        C229   1.298       .  A
O222       Cr239   1.946       .  S
O222        C223   1.237       .  A
C223        O224   1.280       .  A
C223        C457   1.517       .  S
O224       Cr240   2.102       .  S
O225       Cr240   2.063       .  S
O225        C226   1.266       .  A
C226        O227   1.248       .  A
C226        C544   1.522       .  S
O227       Cr241   2.005       .  S
O228       Cr241   1.922       .  S
O228        C229   1.283       .  A
C229        C404   1.451   1_655  S
O230       Cr239   1.949       .  S
O230        C238   1.227   1_655  A
O231       Cr239   1.939       .  S
O231        C232   1.257       .  A
C232        O233   1.278       .  A
C232        C414   1.475       .  S
O233       Cr240   2.059       .  S
O234       Cr240   2.070       .  S
O234        C235   1.308       .  A
C235        O236   1.287       .  A
C235        C827   1.472       .  S
O236       Cr241   1.938       .  S
O237       Cr241   2.005       .  S
O237        C238   1.243   1_655  A
C238        C687   1.460       .  S
Cr239       O242   1.736       .  S
Cr240       O242   1.728       .  S
Cr241       O242   1.739       .  S
O243       Cr261   1.918       .  S
O243        C251   1.281       .  A
O244       Cr261   2.002       .  S
O244        C245   1.246       .  A
C245        O246   1.264       .  A
C245        C587   1.516       .  S
O246       Cr262   2.063       .  S
O247       Cr262   2.114       .  S
O247        C248   1.281       .  A
C248        O249   1.233       .  A
C248        C434   1.521       .  S
O249       Cr263   1.939       .  S
O250       Cr263   2.077       .  S
O250        C251   1.304       .  A
C251        C394   1.453       .  S
O252       Cr261   1.997       .  S
O252        C260   1.241   1_655  A
O253       Cr261   1.932       .  S
O253        C254   1.286       .  A
C254        O255   1.313       .  A
C254        C767   1.481       .  S
O255       Cr262   2.093       .  S
O256       Cr262   2.050       .  S
O256        C257   1.277       .  A
C257        O258   1.262       .  A
C257        C417   1.474       .  S
O258       Cr263   1.950       .  S
O259       Cr263   1.947       .  S
O259        C260   1.226   1_655  A
C260        C644   1.454       .  S
Cr261       O264   1.737       .  S
Cr262       O264   1.717       .  S
Cr263       O264   1.729       .  S
O265       Cr283   1.914       .  S
O265        C273   1.281       .  A
O266       Cr283   1.994       .  S
O266        C267   1.247       .  A
C267        O268   1.266       .  A
C267        C727   1.520       .  S
O268       Cr284   2.065       .  S
O269       Cr284   2.104       .  S
O269        C270   1.282       .  A
C270        O271   1.237       .  A
C270        C377   1.517       .  S
O271       Cr285   1.943       .  S
O272       Cr285   2.071       .  S
O272        C273   1.301       .  A
C273        C424   1.452       .  S
O274       Cr283   2.001       .  S
O274        C282   1.242   1_655  A
O275       Cr283   1.929       .  S
O275        C276   1.285       .  A
C276        O277   1.311       .  A
C276        C624   1.475       .  S
O277       Cr284   2.080       .  S
O278       Cr284   2.052       .  S
O278        C279   1.276       .  A
C279        O280   1.258       .  A
C279        C384   1.471       .  S
O280       Cr285   1.950       .  S
O281       Cr285   1.952       .  S
O281        C282   1.226   1_655  A
C282        C517   1.456       .  S
Cr283       O286   1.738       .  S
Cr284       O286   1.727       .  S
Cr285       O286   1.732       .  S
O287       Cr305   2.078       .  S
O287        C295   1.302       .  A
O288       Cr305   1.942       .  S
O288        C289   1.235       .  A
C289        O290   1.281       .  A
C289        C364   1.519       .  S
O290       Cr306   2.108       .  S
O291       Cr306   2.057       .  S
O291        C292   1.264       .  A
C292        O293   1.249       .  A
C292        C777   1.521       .  S
O293       Cr307   1.998       .  S
O294       Cr307   1.916       .  S
O294        C295   1.279       .  A
C295        C447   1.453   1_655  S
O296       Cr305   1.951       .  S
O296        C304   1.227   1_655  A
O297       Cr305   1.959       .  S
O297        C298   1.261       .  A
C298        O299   1.275       .  A
C298        C387   1.471       .  S
O299       Cr306   2.045       .  S
O300       Cr306   2.084       .  S
O300        C301   1.312       .  A
C301        O302   1.286       .  A
C301        C577   1.479       .  S
O302       Cr307   1.936       .  S
O303       Cr307   2.002   1_455  S
O303        C304   1.242       .  A
C304        C487   1.457       .  S
Cr305       O308   1.735       .  S
Cr306       O308   1.726       .  S
Cr307       O308   1.738       .  S
O309       Cr327   1.942       .  S
O309        C317   1.254   1_455  A
O310       Cr327   2.035       .  S
O310        C311   1.274       .  A
C311        O312   1.289       .  A
C311        C637   1.545       .  S
O312       Cr328   2.072       .  S
O313       Cr328   2.109       .  S
O313        C314   1.284       .  A
C314        O315   1.228       .  A
C314        C374   1.498       .  S
O315       Cr329   1.926   1_455  S
O316       Cr329   2.004       .  S
O316        C317   1.271       .  A
C317        C397   1.474       .  S
O318       Cr327   2.029   1_655  S
O318        C326   1.266       .  A
O319       Cr327   1.948       .  S
O319        C320   1.260       .  A
C320        O321   1.282       .  A
C320        C537   1.472       .  S
O321       Cr328   2.040       .  S
O322       Cr328   1.993       .  S
O322        C323   1.265       .  A
C323        O324   1.276       .  A
C323        C354   1.514       .  S
O324       Cr329   2.046   1_455  S
O325       Cr329   1.946       .  S
O325        C326   1.242       .  A
C326        C597   1.455       .  S
Cr327       O330   1.773       .  S
Cr328       O330   1.766       .  S
Cr329       O330   1.755   1_655  S
O331       Cr349   1.998   1_655  S
O331        C339   1.268       .  A
O332       Cr349   1.928       .  S
O332        C333   1.227       .  A
C333        O334   1.284       .  A
C333        C367   1.506       .  S
O334       Cr350   2.118       .  S
O335       Cr350   2.068       .  S
O335        C336   1.288       .  A
C336        O337   1.273       .  A
C336        C677   1.538       .  S
O337       Cr351   2.027       .  S
O338       Cr351   1.948       .  S
O338        C339   1.253   1_455  A
C339        C407   1.471       .  S
O340       Cr349   1.938   1_655  S
O340        C348   1.242       .  A
O341       Cr349   2.047       .  S
O341        C342   1.277       .  A
C342        O343   1.264       .  A
C342        C357   1.512       .  S
O343       Cr350   1.987       .  S
O344       Cr350   2.048       .  S
O344        C345   1.284       .  A
C345        O346   1.259       .  A
C345        C497   1.475       .  S
O346       Cr351   1.946       .  S
O347       Cr351   2.029   1_655  S
O347        C348   1.268       .  A
C348        C557   1.452       .  S
Cr349       O352   1.751       .  S
Cr350       O352   1.766       .  S
Cr351       O352   1.771       .  S
C353        C354   1.413       .  A
C353        C358   1.420   1_556  A
C353        H359   1.083   1_455  S
C354        C355   1.409       .  A
C355        C356   1.407   1_556  A
C355        H360   1.083       .  S
C356        C357   1.409       .  A
C356        H361   1.083       .  S
C357        C358   1.413       .  A
C358        H362   1.083   1_455  S
C363        C364   1.401       .  A
C363        C368   1.418       .  A
C363        H369   1.082       .  S
C364        C365   1.427   1_655  A
C365        C366   1.406       .  A
C365        H370   1.083       .  S
C366        C367   1.395       .  A
C366        H371   1.083       .  S
C367        C368   1.427   1_455  A
C368        H372   1.081       .  S
C373        C374   1.395       .  A
C373        C378   1.403   1_455  A
C373        H379   1.084       .  S
C374        C375   1.425   1_455  A
C375        C376   1.419       .  A
C375        H380   1.083       .  S
C376        C377   1.403       .  A
C376        H381   1.082       .  S
C377        C378   1.425       .  A
C378        H382   1.083       .  S
C383        C384   1.403       .  A
C383        C388   1.395   1_556  A
C383        H389   1.084       .  S
C384        C385   1.405       .  A
C385        C386   1.406   1_556  A
C385        H390   1.083       .  S
C386        C387   1.405       .  A
C386        H391   1.083       .  S
C387        C388   1.402       .  A
C388        H392   1.084       .  S
C393        C394   1.413       .  A
C393        C398   1.401       .  A
C393        H399   1.084       .  S
C394        C395   1.393   1_655  A
C395        C396   1.390       .  A
C395        H400   1.083       .  S
C396        C397   1.411   1_455  A
C396        H401   1.080       .  S
C397        C398   1.399       .  A
C398        H402   1.083       .  S
C403        C404   1.409   1_655  A
C403        C408   1.399       .  A
C403        H409   1.082       .  S
C404        C405   1.394       .  A
C405        C406   1.393       .  A
C405        H410   1.083       .  S
C406        C407   1.412   1_455  A
C406        H411   1.081       .  S
C407        C408   1.401       .  A
C408        H412   1.083       .  S
C413        C414   1.403       .  A
C413        C418   1.389       .  A
C413        H419   1.084       .  S
C414        C415   1.407       .  A
C415        C416   1.410       .  A
C415        H420   1.083       .  S
C416        C417   1.407       .  A
C416        H421   1.083       .  S
C417        C418   1.401       .  A
C418        H422   1.084       .  S
C423        C424   1.410       .  A
C423        C428   1.401       .  A
C423        H429   1.083       .  S
C424        C425   1.395   1_655  A
C425        C426   1.393       .  A
C425        H430   1.082       .  S
C426        C427   1.411   1_455  A
C426        H431   1.081       .  S
C427        C428   1.401       .  A
C428        H432   1.083       .  S
C433        C434   1.427   1_455  A
C433        C438   1.406       .  A
C433        H439   1.083       .  S
C434        C435   1.401       .  A
C435        C436   1.419       .  A
C435        H440   1.083       .  S
C436        C437   1.428   1_655  A
C436        H441   1.080       .  S
C437        C438   1.395       .  A
C438        H442   1.083       .  S
C443        C444   1.400       .  A
C443        C448   1.401       .  A
C443        H449   1.083       .  S
C444        C445   1.410   1_655  A
C445        C446   1.391       .  A
C445        H450   1.081       .  S
C446        C447   1.395       .  A
C446        H451   1.082       .  S
C447        C448   1.411   1_455  A
C448        H452   1.083       .  S
C453        C454   1.425   1_655  A
C453        C458   1.418       .  A
C453        H459   1.083       .  S
C454        C455   1.396       .  A
C455        C456   1.405   1_455  A
C455        H460   1.083       .  S
C456        C457   1.425       .  A
C456        H461   1.083       .  S
C457        C458   1.402       .  A
C458        H462   1.082       .  S
C463        C464   1.409       .  A
C463        C468   1.403       .  A
C463        H469   1.083       .  S
C464        C465   1.414       .  A
C465        C466   1.422       .  A
C465        H470   1.083   1_455  S
C466        C467   1.413       .  A
C466        H471   1.083   1_455  S
C467        C468   1.409       .  A
C468        H472   1.083       .  S
C473        C474   1.417       .  A
C473        C478   1.435       .  A
C473        H479   1.082       .  S
C474        C475   1.415       .  A
C475        C476   1.414       .  A
C475        H480   1.083       .  S
C476        C477   1.412       .  A
C476        H481   1.083       .  S
C477        C478   1.421       .  A
C478        H482   1.082       .  S
C483        C484   1.405       .  A
C483        C488   1.395       .  A
C483        H489   1.084       .  S
C484        C485   1.400       .  A
C485        C486   1.391       .  A
C485        H490   1.084       .  S
C486        C487   1.400       .  A
C486        H491   1.081       .  S
C487        C488   1.400       .  A
C488        H492   1.083       .  S
C493        C494   1.398       .  A
C493        C498   1.395       .  A
C493        H499   1.083   1_545  S
C494        C495   1.410       .  A
C495        C496   1.394       .  A
C495        H500   1.083       .  S
C496        C497   1.398       .  A
C496        H501   1.083       .  S
C497        C498   1.412       .  A
C498        H502   1.083       .  S
C503        C504   1.411       .  A
C503        C508   1.414       .  A
C503        H509   1.083       .  S
C504        C505   1.420       .  A
C505        C506   1.431       .  A
C505        H510   1.082       .  S
C506        C507   1.416       .  A
C506        H511   1.082       .  S
C507        C508   1.417       .  A
C508        H512   1.083       .  S
C513        C514   1.400       .  A
C513        C518   1.390       .  A
C513        H519   1.084       .  S
C514        C515   1.405       .  A
C515        C516   1.395       .  A
C515        H520   1.084       .  S
C516        C517   1.400       .  A
C516        H521   1.083       .  S
C517        C518   1.400       .  A
C518        H522   1.082       .  S
C523        C524   1.404       .  A
C523        C528   1.398   1_556  A
C523        H529   1.084       .  S
C524        C525   1.407       .  A
C525        C526   1.411   1_556  A
C525        H530   1.083       .  S
C526        C527   1.408       .  A
C526        H531   1.083       .  S
C527        C528   1.402       .  A
C528        H532   1.084       .  S
C533        C534   1.409       .  A
C533        C538   1.393       .  A
C533        H539   1.083       .  S
C534        C535   1.398       .  A
C535        C536   1.393       .  A
C535        H540   1.083   1_545  S
C536        C537   1.411       .  A
C536        H541   1.083       .  S
C537        C538   1.399       .  A
C538        H542   1.083       .  S
C543        C544   1.417       .  A
C543        C548   1.428       .  A
C543        H549   1.083       .  S
C544        C545   1.408       .  A
C545        C546   1.415       .  A
C545        H550   1.084       .  S
C546        C547   1.418       .  A
C546        H551   1.083       .  S
C547        C548   1.415       .  A
C548        H552   1.082       .  S
C553        C554   1.402       .  A
C553        C558   1.392       .  A
C553        H559   1.083       .  S
C554        C555   1.412       .  A
C555        C556   1.395       .  A
C555        H560   1.084       .  S
C556        C557   1.394       .  A
C556        H561   1.083       .  S
C557        C558   1.402       .  A
C558        H562   1.084       .  S
C563        C564   1.397       .  A
C563        C568   1.402   1_545  A
C563        H569   1.083       .  S
C564        C565   1.423   1_545  A
C565        C566   1.415       .  A
C565        H570   1.083       .  S
C566        C567   1.400       .  A
C566        H571   1.083       .  S
C567        C568   1.419       .  A
C568        H572   1.083   1_565  S
C573        C574   1.397       .  A
C573        C578   1.394       .  A
C573        H579   1.083       .  S
C574        C575   1.409       .  A
C575        C576   1.398       .  A
C575        H580   1.083       .  S
C576        C577   1.400       .  A
C576        H581   1.083       .  S
C577        C578   1.413       .  A
C578        H582   1.083       .  S
C583        C584   1.407       .  A
C583        C588   1.414       .  A
C583        H589   1.083       .  S
C584        C585   1.415       .  A
C585        C586   1.420       .  A
C585        H590   1.083       .  S
C586        C587   1.410       .  A
C586        H591   1.083       .  S
C587        C588   1.415       .  A
C588        H592   1.083       .  S
C593        C594   1.412       .  A
C593        C598   1.396       .  A
C593        H599   1.084       .  S
C594        C595   1.400       .  A
C595        C596   1.393       .  A
C595        H600   1.083       .  S
C596        C597   1.403       .  A
C596        H601   1.084       .  S
C597        C598   1.395       .  A
C598        H602   1.083       .  S
C603        C604   1.423       .  A
C603        C608   1.414       .  A
C603        H609   1.083       .  S
C604        C605   1.394   1_565  A
C605        C606   1.397   1_545  A
C605        H610   1.083       .  S
C606        C607   1.418       .  A
C606        H611   1.083       .  S
C607        C608   1.400       .  A
C608        H612   1.083       .  S
C613        C614   1.411   1_565  A
C613        C618   1.415   1_566  A
C613        H619   1.083       .  S
C614        C615   1.409       .  A
C615        C616   1.405   1_556  A
C615        H620   1.083       .  S
C616        C617   1.408       .  A
C616        H621   1.083       .  S
C617        C618   1.412       .  A
C618        H622   1.083   1_545  S
C623        C624   1.412       .  A
C623        C628   1.391       .  A
C623        H629   1.083       .  S
C624        C625   1.399       .  A
C625        C626   1.398       .  A
C625        H630   1.083       .  S
C626        C627   1.411       .  A
C626        H631   1.083       .  S
C627        C628   1.395       .  A
C628        H632   1.083       .  S
C633        C634   1.422       .  A
C633        C638   1.435       .  A
C633        H639   1.082       .  S
C634        C635   1.413       .  A
C635        C636   1.419       .  A
C635        H640   1.083       .  S
C636        C637   1.418       .  A
C636        H641   1.083       .  S
C637        C638   1.417       .  A
C638        H642   1.082       .  S
C643        C644   1.399       .  A
C643        C648   1.388       .  A
C643        H649   1.082       .  S
C644        C645   1.401       .  A
C645        C646   1.394       .  A
C645        H650   1.083       .  S
C646        C647   1.403       .  A
C646        H651   1.084       .  S
C647        C648   1.400       .  A
C648        H652   1.085       .  S
C653        C654   1.402       .  A
C653        C658   1.376       .  A
C653        H659   1.083       .  S
C654        C655   1.405       .  A
C655        C656   1.397       .  A
C655        H660   1.083       .  S
C656        C657   1.406       .  A
C656        H661   1.083       .  S
C657        C658   1.399       .  A
C658        H662   1.084       .  S
C663        C664   1.399       .  A
C663        C668   1.397       .  A
C663        H669   1.083       .  S
C664        C665   1.411       .  A
C665        C666   1.396       .  A
C665        H670   1.083       .  S
C666        C667   1.400       .  A
C666        H671   1.083       .  S
C667        C668   1.412       .  A
C668        H672   1.083       .  S
C673        C674   1.409       .  A
C673        C678   1.413       .  A
C673        H679   1.083       .  S
C674        C675   1.421       .  A
C675        C676   1.432       .  A
C675        H680   1.082       .  S
C676        C677   1.416       .  A
C676        H681   1.082       .  S
C677        C678   1.418       .  A
C678        H682   1.083       .  S
C683        C684   1.403       .  A
C683        C688   1.395       .  A
C683        H689   1.084       .  S
C684        C685   1.401       .  A
C685        C686   1.390       .  A
C685        H690   1.084       .  S
C686        C687   1.400       .  A
C686        H691   1.082       .  S
C687        C688   1.403       .  A
C688        H692   1.083       .  S
C693        C694   1.399       .  A
C693        C698   1.378       .  A
C693        H699   1.084       .  S
C694        C695   1.405       .  A
C695        C696   1.396       .  A
C695        H700   1.083       .  S
C696        C697   1.403       .  A
C696        H701   1.083       .  S
C697        C698   1.402       .  A
C698        H702   1.083       .  S
C703        C704   1.404       .  A
C703        C708   1.404       .  A
C703        H709   1.083       .  S
C704        C705   1.403       .  A
C705        C706   1.400       .  A
C705        H710   1.084       .  S
C706        C707   1.402       .  A
C706        H711   1.083       .  S
C707        C708   1.405       .  A
C708        H712   1.084       .  S
C713        C714   1.411       .  A
C713        C718   1.395       .  A
C713        H719   1.083       .  S
C714        C715   1.399       .  A
C715        C716   1.397       .  A
C715        H720   1.083       .  S
C716        C717   1.412       .  A
C716        H721   1.083       .  S
C717        C718   1.399       .  A
C718        H722   1.083       .  S
C723        C724   1.413       .  A
C723        C728   1.409       .  A
C723        H729   1.083       .  S
C724        C725   1.417       .  A
C725        C726   1.429       .  A
C725        H730   1.082       .  S
C726        C727   1.415       .  A
C726        H731   1.082       .  S
C727        C728   1.408       .  A
C728        H732   1.084       .  S
C733        C734   1.402       .  A
C733        C738   1.396       .  A
C733        H739   1.083       .  S
C734        C735   1.413       .  A
C735        C736   1.394       .  A
C735        H740   1.083       .  S
C736        C737   1.394       .  A
C736        H741   1.083       .  S
C737        C738   1.405       .  A
C738        H742   1.084       .  S
C743        C744   1.398       .  A
C743        C748   1.388       .  A
C743        H749   1.083       .  S
C744        C745   1.403       .  A
C745        C746   1.391       .  A
C745        H750   1.084       .  S
C746        C747   1.401       .  A
C746        H751   1.084       .  S
C747        C748   1.400       .  A
C748        H752   1.081       .  S
C753        C754   1.422       .  A
C753        C758   1.412   1_565  A
C753        H759   1.083       .  S
C754        C755   1.397       .  A
C755        C756   1.399       .  A
C755        H760   1.083       .  S
C756        C757   1.417       .  A
C756        H761   1.083       .  S
C757        C758   1.399   1_565  A
C758        H762   1.083       .  S
C763        C764   1.410       .  A
C763        C768   1.401       .  A
C763        H769   1.083       .  S
C764        C765   1.397       .  A
C765        C766   1.393       .  A
C765        H770   1.083       .  S
C766        C767   1.412       .  A
C766        H771   1.083       .  S
C767        C768   1.401       .  A
C768        H772   1.083       .  S
C773        C774   1.416       .  A
C773        C778   1.429       .  A
C773        H779   1.082       .  S
C774        C775   1.410       .  A
C775        C776   1.406       .  A
C775        H780   1.083       .  S
C776        C777   1.409       .  A
C776        H781   1.083       .  S
C777        C778   1.416       .  A
C778        H782   1.082       .  S
C783        C784   1.414       .  A
C783        C788   1.394       .  A
C783        H789   1.084       .  S
C784        C785   1.401       .  A
C785        C786   1.396       .  A
C785        H790   1.083       .  S
C786        C787   1.405       .  A
C786        H791   1.084       .  S
C787        C788   1.394       .  A
C788        H792   1.083       .  S
C793        C794   1.400       .  A
C793        C798   1.389       .  A
C793        H799   1.084       .  S
C794        C795   1.400       .  A
C795        C796   1.391       .  A
C795        H800   1.082       .  S
C796        C797   1.400       .  A
C796        H801   1.082       .  S
C797        C798   1.402       .  A
C798        H802   1.084       .  S
C803        C804   1.395       .  A
C803        C808   1.399       .  A
C803        H809   1.083       .  S
C804        C805   1.423       .  A
C805        C806   1.413   1_565  A
C805        H810   1.083       .  S
C806        C807   1.399       .  A
C806        H811   1.083       .  S
C807        C808   1.419   1_545  A
C808        H812   1.083       .  S
C813        C814   1.407       .  A
C813        C818   1.401       .  A
C813        H819   1.083       .  S
C814        C815   1.411       .  A
C815        C816   1.413       .  A
C815        H820   1.083       .  S
C816        C817   1.410       .  A
C816        H821   1.083       .  S
C817        C818   1.408       .  A
C818        H822   1.083       .  S
C823        C824   1.408       .  A
C823        C828   1.397       .  A
C823        H829   1.084       .  S
C824        C825   1.397       .  A
C825        C826   1.392       .  A
C825        H830   1.083       .  S
C826        C827   1.410       .  A
C826        H831   1.083       .  S
C827        C828   1.400       .  A
C828        H832   1.083       .  S
