geometry optimzed in LAMMPS
_audit_creation_date              2020-12-01 
_audit_creation_method            'lammps2cif' 
_symmetry_space_group_name_H-M    'P1' 
_symmetry_Int_Tables_number       1 
_symmetry_cell_setting            triclinic 
loop_ 
_symmetry_equiv_pos_as_xyz 
  x,y,z 
_cell_length_a                    26.32044213 
_cell_length_b                    26.321971140000265 
_cell_length_c                    45.61579225908904 
_cell_angle_alpha                 90.00114074586544 
_cell_angle_beta                  89.99991686195816 
_cell_angle_gamma                 89.99999185903616 
loop_ 
_atom_site_label 
_atom_site_type_symbol 
_atom_site_fract_x 
_atom_site_fract_y 
_atom_site_fract_z 
_atom_site_charge 
Fe1        Fe  0.45288063  0.44161837  0.31493425     1.65800
Fe2        Fe  0.48232722  0.33047945  0.34650101     1.73200
Fe3        Fe  0.35900950  0.35807663  0.33138326     1.54400
O4          O  0.32807096  0.42922292  0.32921567    -0.83000
O5          O  0.45174778  0.27363748  0.31909345    -0.81400
O6          O  0.39599234  0.47425493  0.33953847    -0.85600
O7          O  0.40418190  0.43057644  0.28024926    -0.80400
O8          O  0.35747139  0.35371144  0.37677227    -0.82200
O9          O  0.03416352  0.34074748  0.31294979    -0.84900
C10         C  0.38233670  0.39170175  0.26944002     0.95800
C11         C  0.35015042  0.47122290  0.33104511     1.03300
O12         O  0.43210518  0.37769963  0.33170138    -1.13900
O13         O  0.01913918  0.38665438  0.37228625    -0.76300
O14         O  0.00458204  0.45860826  0.34753016    -0.79800
O15         O  0.36243327  0.35699025  0.28532313    -0.80500
C16         C  0.02634945  0.43434897  0.36801645     0.94700
O17         O  0.01039779  0.41059081  0.28892028    -0.78500
O18         O  0.43284323  0.31339224  0.38137931    -0.83700
C19         C  0.40485597  0.26292533  0.31736096     0.97400
C20         C  0.38814266  0.32451069  0.39073942     1.03300
O21         O  0.37367199  0.28452858  0.33346948    -0.79300
C22         C  0.03765988  0.37080862  0.29132864     1.01600
Fe23       Fe  0.18427713  0.28866865  0.18993515     1.65800
Fe24       Fe  0.07313249  0.25921950  0.22150144     1.73200
Fe25       Fe  0.10072343  0.38252868  0.20638000     1.54400
O26         O  0.17186657  0.41347188  0.20420706    -0.83000
O27         O  0.01628625  0.28979324  0.19409355    -0.81400
O28         O  0.21690863  0.34556292  0.21453738    -0.85600
O29         O  0.17322841  0.33735837  0.15524814    -0.80400
O30         O  0.09637036  0.38407278  0.25176762    -0.82200
O31         O  0.08340390  0.20738416  0.18795018    -0.84900
C32         C  0.13434925  0.35919596  0.14443781     0.95800
C33         C  0.21387121  0.39140160  0.20604288     1.03300
O34         O  0.12035272  0.30943873  0.20670058    -1.13900
O35         O  0.12931080  0.22241136  0.24728675    -0.76300
O36         O  0.20127068  0.23697588  0.22253375    -0.79800
O37         O  0.09963197  0.37909558  0.16032009    -0.80500
C38         C  0.17700923  0.21520564  0.24301857     0.94700
O39         O  0.15325561  0.23114551  0.16392323    -0.78500
O40         O  0.05604732  0.30870585  0.25637912    -0.83700
C41         C  0.00557389  0.33668190  0.19236279     0.97400
C42         C  0.06716999  0.35340546  0.26573710     1.03300
O43         O  0.02717523  0.36786034  0.20847453    -0.79300
C44         C  0.11347143  0.20388429  0.16633061     1.01600
Fe45       Fe  0.03133399  0.05726462  0.06493295     1.65800
Fe46       Fe  0.50188567  0.16840193  0.09650227     1.73200
Fe47       Fe  0.12520388  0.14080732  0.08138309     1.54400
O48         O  0.15614229  0.06966101  0.07921342    -0.83000
O49         O  0.03246371  0.22524470  0.06909550    -0.81400
O50         O  0.08822174  0.02462934  0.08953749    -0.85600
O51         O  0.08003394  0.06830635  0.03024860    -0.80400
O52         O  0.12674215  0.14516989  0.12677139    -0.82200
O53         O  0.45004866  0.15813322  0.06295108    -0.84900
C54         C  0.10187870  0.10717910  0.01943994     0.95800
C55         C  0.13406380  0.02766080  0.08104457     1.03300
O56         O  0.05210823  0.12118339  0.08170099    -1.13900
O57         O  0.46507509  0.11222577  0.12228692    -0.76300
O58         O  0.47963214  0.04027300  0.09752829    -0.79800
O59         O  0.12178056  0.14189349  0.03532342    -0.80500
C60         C  0.45786579  0.06453086  0.11801618     0.94700
O61         O  0.47381695  0.08829197  0.03891905    -0.78500
O62         O  0.05137051  0.18548946  0.13138027    -0.83700
C63         C  0.07935550  0.23595711  0.06736255     0.97400
C64         C  0.09607159  0.17437082  0.14073932     1.03300
O65         O  0.11053966  0.21435512  0.08347112    -0.79300
C66         C  0.44655448  0.12807361  0.04132823     1.01600
Fe67       Fe  0.29993980  0.21021183  0.43993508     1.65800
Fe68       Fe  0.41108474  0.23966268  0.47150147     1.73200
Fe69       Fe  0.38349478  0.11635359  0.45637822     1.54400
O70         O  0.31235249  0.08540906  0.45420336    -0.83000
O71         O  0.46793251  0.20908822  0.44409384    -0.81400
O72         O  0.26730939  0.15331682  0.46453601    -0.85600
O73         O  0.31098919  0.16152272  0.40524745    -0.80400
O74         O  0.38784607  0.11480962  0.50176601    -0.82200
O75         O  0.40081423  0.29149656  0.43794964    -0.84900
C76         C  0.34986825  0.13968741  0.39443674     0.95800
C77         C  0.27034747  0.10747799  0.45604074     1.03300
O78         O  0.36386449  0.18944287  0.45670003    -1.13900
O79         O  0.35490577  0.27647178  0.49728638    -0.76300
O80         O  0.28294479  0.26190284  0.47253431    -0.79800
O81         O  0.38458746  0.11978768  0.41031847    -0.80500
C82         C  0.30720658  0.28367450  0.49301886     0.94700
O83         O  0.33095995  0.26773646  0.41392419    -0.78500
O84         O  0.42816859  0.19017715  0.00637950    -0.83700
C85         C  0.47864442  0.16219919  0.44236355     0.97400
C86         C  0.41704564  0.14547759  0.01573653     1.03300
O87         O  0.45704233  0.13102232  0.45847547    -0.79300
C88         C  0.37074475  0.29499723  0.41633092     1.01600
Fe89       Fe  0.04993542  0.03868083  0.44174342     1.65800
Fe90       Fe  0.16108590  0.00923114  0.41018238     1.73200
Fe91       Fe  0.13349145  0.13254088  0.42530173     1.54400
O92         O  0.06234937  0.16348615  0.42747147    -0.83000
O93         O  0.21793056  0.03980785  0.43759019    -0.81400
O94         O  0.01730494  0.09557742  0.41714345    -0.85600
O95         O  0.06098006  0.08736912  0.47643149    -0.80400
O96         O  0.13785326  0.13408284  0.37991363    -0.82200
O97         O  0.15081243  0.45739955  0.44373498    -0.84900
C98         C  0.09985853  0.10920899  0.48724278     0.95800
C99         C  0.02034421  0.14141606  0.42563869     1.03300
O100        O  0.11386236  0.05945081  0.42498070    -1.13900
O101        O  0.10491145  0.47241803  0.38439646    -0.76300
O102        O  0.03294581  0.48698940  0.40914327    -0.79800
O103        O  0.13457527  0.12910941  0.47136173    -0.80500
C104        C  0.05721192  0.46521439  0.38866165     0.94700
O105        O  0.08095147  0.48115499  0.46775573    -0.78500
O106        O  0.17817416  0.05871405  0.37530373    -0.83700
C107        C  0.22864310  0.08669695  0.43931993     0.97400
C108        C  0.16705456  0.10341349  0.36594511     1.03300
O109        O  0.20703959  0.11787497  0.42320972    -0.79300
C110        C  0.12073788  0.45389517  0.46535114     1.01600
Fe111      Fe  0.28134674  0.19162158  0.31674532     1.65800
Fe112      Fe  0.25190159  0.08047801  0.28518157     1.73200
Fe113      Fe  0.37522007  0.10807864  0.30029685     1.54400
O114        O  0.40615906  0.17922503  0.30246105    -0.83000
O115        O  0.28248218  0.02363912  0.31258947    -0.81400
O116        O  0.33823613  0.22425726  0.29214169    -0.85600
O117        O  0.33004525  0.18058495  0.35143015    -0.80400
O118        O  0.37675712  0.10370422  0.25490825    -0.82200
O119        O  0.20006580  0.09074894  0.31873361    -0.84900
C120        C  0.35189466  0.14171230  0.36223949     0.95800
C121        C  0.38407891  0.22122444  0.30063482     1.03300
O122        O  0.30212332  0.12770074  0.29997938    -1.13900
O123        O  0.21508687  0.13664866  0.25939520    -0.76300
O124        O  0.22964484  0.20860716  0.28414866    -0.79800
O125        O  0.37179896  0.10700077  0.34635687    -0.80500
C126        C  0.20787556  0.18434396  0.26366379     0.94700
O127        O  0.22382870  0.16059733  0.34276067    -0.78500
O128        O  0.30138413  0.06338605  0.25030349    -0.83700
C129        C  0.32937352  0.01292575  0.31432156     0.97400
C130        C  0.34608512  0.07450135  0.24094273     1.03300
O131        O  0.36055944  0.03452970  0.29821465    -0.79300
C132        C  0.19656748  0.12081391  0.34035372     1.01600
Fe133      Fe  0.43428276  0.46019854  0.19174318     1.65800
Fe134      Fe  0.32313192  0.48964611  0.16018301     1.73200
Fe135      Fe  0.35072667  0.36633689  0.17530113     1.54400
O136        O  0.42186977  0.33539150  0.17746978    -0.83000
O137        O  0.26628824  0.45907053  0.18759180    -0.81400
O138        O  0.46691335  0.40330116  0.16714261    -0.85600
O139        O  0.42323830  0.41151239  0.22643160    -0.80400
O140        O  0.34636251  0.36479333  0.12991309    -0.82200
O141        O  0.33340581  0.04147947  0.19373478    -0.84900
C142        C  0.38436123  0.38967246  0.23724263     0.95800
C143        C  0.46387450  0.35746266  0.17563750     1.03300
O144        O  0.37035559  0.43942699  0.17498032    -1.13900
O145        O  0.37930474  0.02645889  0.13439647    -0.76300
O146        O  0.45127168  0.01188929  0.15914263    -0.79800
O147        O  0.34964369  0.36976949  0.22136139    -0.80500
C148        C  0.42700446  0.03366402  0.13866148     0.94700
O149        O  0.40326588  0.01772513  0.21775546    -0.78500
O150        O  0.30604219  0.44016215  0.12530481    -0.83700
C151        C  0.25557494  0.41218171  0.18932126     0.97400
C152        C  0.31716110  0.39546255  0.11594540     1.03300
O153        O  0.27717777  0.38100257  0.17321054    -0.79300
C154        C  0.36347951  0.04498441  0.21535098     1.01600
Fe155      Fe  0.20286678  0.30725761  0.06674450     1.65800
Fe156      Fe  0.23231365  0.41840174  0.03518315     1.73200
Fe157      Fe  0.10899527  0.39080237  0.05029758     1.54400
O158        O  0.07805377  0.31965690  0.05246186    -0.83000
O159        O  0.20173291  0.47524233  0.06259087    -0.81400
O160        O  0.14597511  0.27462268  0.04214168    -0.85600
O161        O  0.15417067  0.31829611  0.10143034    -0.80400
O162        O  0.10745856  0.39517675  0.00490833    -0.82200
O163        O  0.28414687  0.40813091  0.06873543    -0.84900
C164        C  0.13232341  0.35716847  0.11224036     0.95800
C165        C  0.10013281  0.27765670  0.05063561     1.03300
O166        O  0.18209113  0.37117936  0.04997975    -1.13900
O167        O  0.26913039  0.36223102  0.00939721    -0.76300
O168        O  0.25456641  0.29027179  0.03414692    -0.79800
O169        O  0.11241869  0.39188092  0.09635813    -0.80500
C170        C  0.27633921  0.31453550  0.01366410     0.94700
O171        O  0.26038735  0.33827975  0.09275897    -0.78500
O172        O  0.18283280  0.43549274  0.50030410    -0.83700
C173        C  0.15484119  0.48595576  0.06432243     0.97400
C174        C  0.13813168  0.42437829  0.49094287     1.03300
O175        O  0.12365614  0.46435101  0.04821526    -0.79300
C176        C  0.28764761  0.37806381  0.09035354     1.01600
Fe177      Fe  0.45288038  0.44161825  0.81493438     1.65800
Fe178      Fe  0.48232684  0.33047966  0.84650104     1.73200
Fe179      Fe  0.35900953  0.35807654  0.83138325     1.54400
O180        O  0.32807083  0.42922269  0.82921551    -0.83000
O181        O  0.45174793  0.27363736  0.81909339    -0.81400
O182        O  0.39599231  0.47425491  0.83953862    -0.85600
O183        O  0.40418179  0.43057636  0.78024927    -0.80400
O184        O  0.35747054  0.35371151  0.87677223    -0.82200
O185        O  0.03416350  0.34074775  0.81294988    -0.84900
C186        C  0.38233684  0.39170209  0.76943993     0.95800
C187        C  0.35015026  0.47122270  0.83104501     1.03300
O188        O  0.43210550  0.37769944  0.83170155    -1.13900
O189        O  0.01913890  0.38665418  0.87228626    -0.76300
O190        O  0.00458203  0.45860815  0.84753008    -0.79800
O191        O  0.36243330  0.35699015  0.78532298    -0.80500
C192        C  0.02634966  0.43434869  0.86801628     0.94700
O193        O  0.01039789  0.41059107  0.78892014    -0.78500
O194        O  0.43284350  0.31339232  0.88137928    -0.83700
C195        C  0.40485655  0.26292508  0.81736098     0.97400
C196        C  0.38814230  0.32451101  0.89073932     1.03300
O197        O  0.37367192  0.28452875  0.83346950    -0.79300
C198        C  0.03765972  0.37080880  0.79132855     1.01600
Fe199      Fe  0.18427713  0.28866844  0.68993518     1.65800
Fe200      Fe  0.07313286  0.25921968  0.72150120     1.73200
Fe201      Fe  0.10072345  0.38252854  0.70638004     1.54400
O202        O  0.17186654  0.41347183  0.70420719    -0.83000
O203        O  0.01628630  0.28979307  0.69409368    -0.81400
O204        O  0.21690868  0.34556292  0.71453715    -0.85600
O205        O  0.17322854  0.33735820  0.65524805    -0.80400
O206        O  0.09637042  0.38407263  0.75176762    -0.82200
O207        O  0.08340377  0.20738396  0.68795022    -0.84900
C208        C  0.13434996  0.35919560  0.64443773     0.95800
C209        C  0.21387117  0.39140170  0.70604285     1.03300
O210        O  0.12035256  0.30943855  0.70670062    -1.13900
O211        O  0.12931072  0.22241159  0.74728670    -0.76300
O212        O  0.20127108  0.23697581  0.72253355    -0.79800
O213        O  0.09963260  0.37909562  0.66032002    -0.80500
C214        C  0.17700926  0.21520568  0.74301837     0.94700
O215        O  0.15325558  0.23114559  0.66392332    -0.78500
O216        O  0.05604740  0.30870579  0.75637925    -0.83700
C217        C  0.00557430  0.33668221  0.69236295     0.97400
C218        C  0.06716993  0.35340533  0.76573715     1.03300
O219        O  0.02717541  0.36786072  0.70847475    -0.79300
C220        C  0.11347123  0.20388420  0.66633076     1.01600
Fe221      Fe  0.03133385  0.05726420  0.56493282     1.65800
Fe222      Fe  0.50188563  0.16840157  0.59650223     1.73200
Fe223      Fe  0.12520382  0.14080701  0.58138300     1.54400
O224        O  0.15614264  0.06966139  0.57921328    -0.83000
O225        O  0.03246343  0.22524466  0.56909543    -0.81400
O226        O  0.08822151  0.02462913  0.58953749    -0.85600
O227        O  0.08003407  0.06830621  0.53024878    -0.80400
O228        O  0.12674231  0.14516983  0.62677155    -0.82200
O229        O  0.45004839  0.15813354  0.56295096    -0.84900
C230        C  0.10187889  0.10717919  0.51944004     0.95800
C231        C  0.13406416  0.02766144  0.58104427     1.03300
O232        O  0.05210812  0.12118347  0.58170101    -1.13900
O233        O  0.46507529  0.11222539  0.62228700    -0.76300
O234        O  0.47963179  0.04027323  0.59752848    -0.79800
O235        O  0.12178089  0.14189367  0.53532347    -0.80500
C236        C  0.45786551  0.06453078  0.61801627     0.94700
O237        O  0.47381706  0.08829193  0.53891899    -0.78500
O238        O  0.05137059  0.18548941  0.63138011    -0.83700
C239        C  0.07935502  0.23595717  0.56736249     0.97400
C240        C  0.09607182  0.17437073  0.64073934     1.03300
O241        O  0.11054012  0.21435512  0.58347100    -0.79300
C242        C  0.44655423  0.12807385  0.54132834     1.01600
Fe243      Fe  0.29993983  0.21021181  0.93993496     1.65800
Fe244      Fe  0.41108458  0.23966257  0.97150127     1.73200
Fe245      Fe  0.38349493  0.11635357  0.95637831     1.54400
O246        O  0.31235263  0.08540872  0.95420327    -0.83000
O247        O  0.46793233  0.20908795  0.94409393    -0.81400
O248        O  0.26730948  0.15331688  0.96453600    -0.85600
O249        O  0.31098928  0.16152247  0.90524753    -0.80400
O250        O  0.38784594  0.11480979  0.00176587    -0.82200
O251        O  0.40081439  0.29149635  0.93794954    -0.84900
C252        C  0.34986794  0.13968737  0.89443669     0.95800
C253        C  0.27034759  0.10747812  0.95604067     1.03300
O254        O  0.36386464  0.18944308  0.95670004    -1.13900
O255        O  0.35490558  0.27647169  0.99728623    -0.76300
O256        O  0.28294514  0.26190263  0.97253434    -0.79800
O257        O  0.38458706  0.11978769  0.91031835    -0.80500
C258        C  0.30720658  0.28367467  0.99301876     0.94700
O259        O  0.33095985  0.26773636  0.91392419    -0.78500
O260        O  0.42816869  0.19017725  0.50637956    -0.83700
C261        C  0.47864447  0.16219910  0.94236350     0.97400
C262        C  0.41704511  0.14547757  0.51573675     1.03300
O263        O  0.45704244  0.13102242  0.95847532    -0.79300
C264        C  0.37074486  0.29499734  0.91633100     1.01600
Fe265      Fe  0.04993525  0.03868101  0.94174349     1.65800
Fe266      Fe  0.16108570  0.00923116  0.91018232     1.73200
Fe267      Fe  0.13349124  0.13254101  0.92530157     1.54400
O268        O  0.06234907  0.16348663  0.92747143    -0.83000
O269        O  0.21793040  0.03980783  0.93759028    -0.81400
O270        O  0.01730468  0.09557749  0.91714353    -0.85600
O271        O  0.06098007  0.08736910  0.97643158    -0.80400
O272        O  0.13785302  0.13408286  0.87991373    -0.82200
O273        O  0.15081209  0.45739991  0.94373501    -0.84900
C274        C  0.09985831  0.10920937  0.98724290     0.95800
C275        C  0.02034400  0.14141649  0.92563845     1.03300
O276        O  0.11386252  0.05945078  0.92498058    -1.13900
O277        O  0.10491160  0.47241777  0.88439623    -0.76300
O278        O  0.03294587  0.48698970  0.90914319    -0.79800
O279        O  0.13457525  0.12910935  0.97136199    -0.80500
C280        C  0.05721206  0.46521420  0.88866159     0.94700
O281        O  0.08095151  0.48115468  0.96775544    -0.78500
O282        O  0.17817404  0.05871439  0.87530379    -0.83700
C283        C  0.22864349  0.08669656  0.93931995     0.97400
C284        C  0.16705453  0.10341412  0.86594529     1.03300
O285        O  0.20703981  0.11787474  0.92320985    -0.79300
C286        C  0.12073773  0.45389520  0.96535116     1.01600
Fe287      Fe  0.28134702  0.19162197  0.81674518     1.65800
Fe288      Fe  0.25190183  0.08047809  0.78518171     1.73200
Fe289      Fe  0.37522002  0.10807860  0.80029696     1.54400
O290        O  0.40615878  0.17922499  0.80246101    -0.83000
O291        O  0.28248216  0.02363896  0.81258959    -0.81400
O292        O  0.33823632  0.22425722  0.79214164    -0.85600
O293        O  0.33004546  0.18058469  0.85143044    -0.80400
O294        O  0.37675739  0.10370399  0.75490822    -0.82200
O295        O  0.20006603  0.09074897  0.81873342    -0.84900
C296        C  0.35189511  0.14171210  0.86223965     0.95800
C297        C  0.38407847  0.22122470  0.80063473     1.03300
O298        O  0.30212312  0.12770054  0.79997930    -1.13900
O299        O  0.21508691  0.13664890  0.75939536    -0.76300
O300        O  0.22964481  0.20860695  0.78414854    -0.79800
O301        O  0.37179906  0.10700090  0.84635695    -0.80500
C302        C  0.20787549  0.18434404  0.76366370     0.94700
O303        O  0.22382843  0.16059715  0.84276036    -0.78500
O304        O  0.30138402  0.06338609  0.75030356    -0.83700
C305        C  0.32937357  0.01292586  0.81432158     0.97400
C306        C  0.34608495  0.07450131  0.74094274     1.03300
O307        O  0.36055945  0.03452966  0.79821441    -0.79300
C308        C  0.19656739  0.12081343  0.84035346     1.01600
Fe309      Fe  0.43428269  0.46019853  0.69174323     1.65800
Fe310      Fe  0.32313196  0.48964602  0.66018310     1.73200
Fe311      Fe  0.35072668  0.36633671  0.67530109     1.54400
O312        O  0.42186986  0.33539174  0.67746974    -0.83000
O313        O  0.26628831  0.45907038  0.68759181    -0.81400
O314        O  0.46691288  0.40330093  0.66714258    -0.85600
O315        O  0.42323810  0.41151225  0.72643153    -0.80400
O316        O  0.34636232  0.36479354  0.62991310    -0.82200
O317        O  0.33340572  0.04147951  0.69373492    -0.84900
C318        C  0.38436081  0.38967236  0.73724262     0.95800
C319        C  0.46387442  0.35746259  0.67563774     1.03300
O320        O  0.37035565  0.43942710  0.67498036    -1.13900
O321        O  0.37930492  0.02645883  0.63439644    -0.76300
O322        O  0.45127120  0.01188918  0.65914249    -0.79800
O323        O  0.34964379  0.36976963  0.72136138    -0.80500
C324        C  0.42700438  0.03366375  0.63866130     0.94700
O325        O  0.40326590  0.01772522  0.71775572    -0.78500
O326        O  0.30604223  0.44016188  0.62530484    -0.83700
C327        C  0.25557503  0.41218169  0.68932135     0.97400
C328        C  0.31716105  0.39546255  0.61594543     1.03300
O329        O  0.27717802  0.38100288  0.67321071    -0.79300
C330        C  0.36347955  0.04498444  0.71535117     1.01600
Fe331      Fe  0.20286666  0.30725779  0.56674453     1.65800
Fe332      Fe  0.23231342  0.41840173  0.53518306     1.73200
Fe333      Fe  0.10899530  0.39080253  0.55029768     1.54400
O334        O  0.07805419  0.31965685  0.55246186    -0.83000
O335        O  0.20173294  0.47524244  0.56259101    -0.81400
O336        O  0.14597498  0.27462244  0.54214176    -0.85600
O337        O  0.15417059  0.31829626  0.60143052    -0.80400
O338        O  0.10745836  0.39517689  0.50490828    -0.82200
O339        O  0.28414703  0.40813079  0.56873547    -0.84900
C340        C  0.13232326  0.35716910  0.61224046     0.95800
C341        C  0.10013332  0.27765638  0.55063575     1.03300
O342        O  0.18209132  0.37117921  0.54997980    -1.13900
O343        O  0.26913051  0.36223101  0.50939730    -0.76300
O344        O  0.25456667  0.29027162  0.53414687    -0.79800
O345        O  0.11241836  0.39188097  0.59635826    -0.80500
C346        C  0.27633948  0.31453545  0.51366414     0.94700
O347        O  0.26038775  0.33828000  0.59275913    -0.78500
O348        O  0.18283259  0.43549258  0.00030422    -0.83700
C349        C  0.15484173  0.48595603  0.56432249     0.97400
C350        C  0.13813159  0.42437853  0.99094300     1.03300
O351        O  0.12365622  0.46435095  0.54821531    -0.79300
C352        C  0.28764768  0.37806410  0.59035371     1.01600
Fe353      Fe  0.45288041  0.94161832  0.31493421     1.65800
Fe354      Fe  0.48232700  0.83047958  0.34650095     1.73200
Fe355      Fe  0.35900944  0.85807661  0.33138327     1.54400
O356        O  0.32807062  0.92922293  0.32921554    -0.83000
O357        O  0.45174784  0.77363737  0.31909341    -0.81400
O358        O  0.39599232  0.97425500  0.33953852    -0.85600
O359        O  0.40418203  0.93057654  0.28024936    -0.80400
O360        O  0.35747103  0.85371128  0.37677224    -0.82200
O361        O  0.03416336  0.84074768  0.31294992    -0.84900
C362        C  0.38233654  0.89170180  0.26944007     0.95800
C363        C  0.35015008  0.97122280  0.33104511     1.03300
O364        O  0.43210550  0.87769940  0.33170152    -1.13900
O365        O  0.01913902  0.88665427  0.37228620    -0.76300
O366        O  0.00458204  0.95860816  0.34753014    -0.79800
O367        O  0.36243326  0.85699000  0.28532307    -0.80500
C368        C  0.02634934  0.93434888  0.36801644     0.94700
O369        O  0.01039790  0.91059105  0.28892019    -0.78500
O370        O  0.43284341  0.81339229  0.38137933    -0.83700
C371        C  0.40485629  0.76292517  0.31736100     0.97400
C372        C  0.38814262  0.82451082  0.39073941     1.03300
O373        O  0.37367190  0.78452866  0.33346955    -0.79300
C374        C  0.03765972  0.87080868  0.29132865     1.01600
Fe375      Fe  0.18427702  0.78866864  0.18993518     1.65800
Fe376      Fe  0.07313257  0.75921972  0.22150133     1.73200
Fe377      Fe  0.10072329  0.88252867  0.20637999     1.54400
O378        O  0.17186672  0.91347189  0.20420708    -0.83000
O379        O  0.01628610  0.78979311  0.19409352    -0.81400
O380        O  0.21690862  0.84556320  0.21453727    -0.85600
O381        O  0.17322837  0.83735808  0.15524801    -0.80400
O382        O  0.09637026  0.88407284  0.25176759    -0.82200
O383        O  0.08340356  0.70738403  0.18795019    -0.84900
C384        C  0.13434982  0.85919560  0.14443779     0.95800
C385        C  0.21387132  0.89140167  0.20604284     1.03300
O386        O  0.12035277  0.80943851  0.20670056    -1.13900
O387        O  0.12931061  0.72241161  0.24728674    -0.76300
O388        O  0.20127081  0.73697592  0.22253363    -0.79800
O389        O  0.09963210  0.87909555  0.16032017    -0.80500
C390        C  0.17700918  0.71520584  0.24301849     0.94700
O391        O  0.15325552  0.73114553  0.16392326    -0.78500
O392        O  0.05604734  0.80870571  0.25637928    -0.83700
C393        C  0.00557405  0.83668196  0.19236278     0.97400
C394        C  0.06716989  0.85340546  0.26573712     1.03300
O395        O  0.02717524  0.86786062  0.20847461    -0.79300
C396        C  0.11347122  0.70388419  0.16633069     1.01600
Fe397      Fe  0.03133384  0.55726431  0.06493288     1.65800
Fe398      Fe  0.50188578  0.66840184  0.09650231     1.73200
Fe399      Fe  0.12520367  0.64080722  0.08138306     1.54400
O400        O  0.15614257  0.56966119  0.07921336    -0.83000
O401        O  0.03246357  0.72524464  0.06909538    -0.81400
O402        O  0.08822171  0.52462971  0.08953758    -0.85600
O403        O  0.08003413  0.56830645  0.03024874    -0.80400
O404        O  0.12674226  0.64516990  0.12677140    -0.82200
O405        O  0.45004844  0.65813358  0.06295116    -0.84900
C406        C  0.10187918  0.60717945  0.01943996     0.95800
C407        C  0.13406430  0.52766137  0.08104436     1.03300
O408        O  0.05210823  0.62118319  0.08170099    -1.13900
O409        O  0.46507506  0.61222564  0.12228696    -0.76300
O410        O  0.47963199  0.54027324  0.09752840    -0.79800
O411        O  0.12178065  0.64189377  0.03532335    -0.80500
C412        C  0.45786557  0.56453090  0.11801622     0.94700
O413        O  0.47381695  0.58829217  0.03891901    -0.78500
O414        O  0.05137051  0.68548954  0.13138028    -0.83700
C415        C  0.07935500  0.73595739  0.06736260     0.97400
C416        C  0.09607170  0.67437077  0.14073933     1.03300
O417        O  0.11053969  0.71435512  0.08347115    -0.79300
C418        C  0.44655426  0.62807407  0.04132839     1.01600
Fe419      Fe  0.29993991  0.71021173  0.43993505     1.65800
Fe420      Fe  0.41108466  0.73966253  0.47150129     1.73200
Fe421      Fe  0.38349498  0.61635353  0.45637818     1.54400
O422        O  0.31235252  0.58540907  0.45420328    -0.83000
O423        O  0.46793239  0.70908801  0.44409398    -0.81400
O424        O  0.26730973  0.65331674  0.46453601    -0.85600
O425        O  0.31098920  0.66152250  0.40524755    -0.80400
O426        O  0.38784639  0.61480995  0.50176602    -0.82200
O427        O  0.40081431  0.79149648  0.43794961    -0.84900
C428        C  0.34986830  0.63968737  0.39443675     0.95800
C429        C  0.27034741  0.60747825  0.45604079     1.03300
O430        O  0.36386448  0.68944301  0.45670010    -1.13900
O431        O  0.35490577  0.77647175  0.49728637    -0.76300
O432        O  0.28294497  0.76190260  0.47253440    -0.79800
O433        O  0.38458748  0.61978747  0.41031838    -0.80500
C434        C  0.30720668  0.78367459  0.49301885     0.94700
O435        O  0.33096000  0.76773651  0.41392428    -0.78500
O436        O  0.42816874  0.69017724  0.00637943    -0.83700
C437        C  0.47864451  0.66219908  0.44236366     0.97400
C438        C  0.41704532  0.64547756  0.01573659     1.03300
O439        O  0.45704234  0.63102244  0.45847545    -0.79300
C440        C  0.37074496  0.79499720  0.41633095     1.01600
Fe441      Fe  0.04993528  0.53868085  0.44174349     1.65800
Fe442      Fe  0.16108566  0.50923120  0.41018233     1.73200
Fe443      Fe  0.13349138  0.63254092  0.42530170     1.54400
O444        O  0.06234909  0.66348649  0.42747148    -0.83000
O445        O  0.21793057  0.53980778  0.43759022    -0.81400
O446        O  0.01730481  0.59557755  0.41714348    -0.85600
O447        O  0.06097989  0.58736910  0.47643144    -0.80400
O448        O  0.13785316  0.63408285  0.37991367    -0.82200
O449        O  0.15081238  0.95739952  0.44373496    -0.84900
C450        C  0.09985838  0.60920924  0.48724277     0.95800
C451        C  0.02034407  0.64141629  0.42563860     1.03300
O452        O  0.11386258  0.55945076  0.42498055    -1.13900
O453        O  0.10491145  0.97241808  0.38439648    -0.76300
O454        O  0.03294584  0.98698956  0.40914324    -0.79800
O455        O  0.13457521  0.62910942  0.47136181    -0.80500
C456        C  0.05721187  0.96521449  0.38866163     0.94700
O457        O  0.08095136  0.98115501  0.46775568    -0.78500
O458        O  0.17817404  0.55871439  0.37530368    -0.83700
C459        C  0.22864335  0.58669647  0.43932003     0.97400
C460        C  0.16705454  0.60341401  0.36594520     1.03300
O461        O  0.20703964  0.61787488  0.42320988    -0.79300
C462        C  0.12073776  0.95389520  0.46535114     1.01600
Fe463      Fe  0.28134686  0.69162182  0.31674523     1.65800
Fe464      Fe  0.25190168  0.58047801  0.28518157     1.73200
Fe465      Fe  0.37522007  0.60807851  0.30029697     1.54400
O466        O  0.40615874  0.67922511  0.30246105    -0.83000
O467        O  0.28248222  0.52363898  0.31258956    -0.81400
O468        O  0.33823610  0.72425723  0.29214165    -0.85600
O469        O  0.33004548  0.68058492  0.35143031    -0.80400
O470        O  0.37675713  0.60370402  0.25490813    -0.82200
O471        O  0.20006577  0.59074932  0.31873365    -0.84900
C472        C  0.35189471  0.64171221  0.36223956     0.95800
C473        C  0.38407844  0.72122468  0.30063480     1.03300
O474        O  0.30212339  0.62770052  0.29997923    -1.13900
O475        O  0.21508697  0.63664892  0.25939538    -0.76300
O476        O  0.22964477  0.70860718  0.28414861    -0.79800
O477        O  0.37179891  0.60700081  0.34635686    -0.80500
C478        C  0.20787567  0.68434419  0.26366372     0.94700
O479        O  0.22382850  0.66059715  0.34276052    -0.78500
O480        O  0.30138394  0.56338604  0.25030352    -0.83700
C481        C  0.32937335  0.51292567  0.31432158     0.97400
C482        C  0.34608475  0.57450115  0.24094264     1.03300
O483        O  0.36055923  0.53452972  0.29821450    -0.79300
C484        C  0.19656728  0.62081378  0.34035367     1.01600
Fe485      Fe  0.43428263  0.96019845  0.19174317     1.65800
Fe486      Fe  0.32313187  0.98964614  0.16018313     1.73200
Fe487      Fe  0.35072675  0.86633669  0.17530108     1.54400
O488        O  0.42186967  0.83539174  0.17746964    -0.83000
O489        O  0.26628814  0.95907024  0.18759180    -0.81400
O490        O  0.46691296  0.90330092  0.16714266    -0.85600
O491        O  0.42323835  0.91151256  0.22643157    -0.80400
O492        O  0.34636238  0.86479355  0.12991309    -0.82200
O493        O  0.33340559  0.54147943  0.19373475    -0.84900
C494        C  0.38436139  0.88967252  0.23724264     0.95800
C495        C  0.46387436  0.85746260  0.17563763     1.03300
O496        O  0.37035558  0.93942705  0.17498036    -1.13900
O497        O  0.37930496  0.52645873  0.13439650    -0.76300
O498        O  0.45127146  0.51188921  0.15914259    -0.79800
O499        O  0.34964364  0.86976950  0.22136142    -0.80500
C500        C  0.42700446  0.53366389  0.13866144     0.94700
O501        O  0.40326607  0.51772502  0.21775572    -0.78500
O502        O  0.30604245  0.94016185  0.12530480    -0.83700
C503        C  0.25557474  0.91218178  0.18932129     0.97400
C504        C  0.31716101  0.89546221  0.11594544     1.03300
O505        O  0.27717778  0.88100278  0.17321071    -0.79300
C506        C  0.36347980  0.54498441  0.21535101     1.01600
Fe507      Fe  0.20286655  0.80725766  0.06674441     1.65800
Fe508      Fe  0.23231353  0.91840173  0.03518306     1.73200
Fe509      Fe  0.10899524  0.89080266  0.05029760     1.54400
O510        O  0.07805409  0.81965693  0.05246188    -0.83000
O511        O  0.20173284  0.97524249  0.06259092    -0.81400
O512        O  0.14597501  0.77462260  0.04214169    -0.85600
O513        O  0.15417060  0.81829622  0.10143036    -0.80400
O514        O  0.10745819  0.89517678  0.00490829    -0.82200
O515        O  0.28414694  0.90813091  0.06873534    -0.84900
C516        C  0.13232315  0.85716930  0.11224034     0.95800
C517        C  0.10013315  0.77765645  0.05063553     1.03300
O518        O  0.18209141  0.87117912  0.04997983    -1.13900
O519        O  0.26913043  0.86223095  0.00939739    -0.76300
O520        O  0.25456645  0.79027148  0.03414695    -0.79800
O521        O  0.11241833  0.89188113  0.09635814    -0.80500
C522        C  0.27633913  0.81453532  0.01366416     0.94700
O523        O  0.26038741  0.83827999  0.09275909    -0.78500
O524        O  0.18283268  0.93549263  0.50030417    -0.83700
C525        C  0.15484175  0.98595596  0.06432248     0.97400
C526        C  0.13813169  0.92437815  0.49094285     1.03300
O527        O  0.12365624  0.96435093  0.04821517    -0.79300
C528        C  0.28764774  0.87806409  0.09035347     1.01600
Fe529      Fe  0.45288072  0.94161822  0.81493436     1.65800
Fe530      Fe  0.48232696  0.83047956  0.84650110     1.73200
Fe531      Fe  0.35900945  0.85807656  0.83138330     1.54400
O532        O  0.32807098  0.92922284  0.82921560    -0.83000
O533        O  0.45174783  0.77363744  0.81909349    -0.81400
O534        O  0.39599207  0.97425481  0.83953851    -0.85600
O535        O  0.40418177  0.93057613  0.78024919    -0.80400
O536        O  0.35747074  0.85371173  0.87677216    -0.82200
O537        O  0.03416360  0.84074738  0.81294979    -0.84900
C538        C  0.38233667  0.89170169  0.76943991     0.95800
C539        C  0.35015018  0.97122276  0.83104498     1.03300
O540        O  0.43210538  0.87769971  0.83170145    -1.13900
O541        O  0.01913904  0.88665425  0.87228633    -0.76300
O542        O  0.00458226  0.95860779  0.84753006    -0.79800
O543        O  0.36243331  0.85699039  0.78532305    -0.80500
C544        C  0.02634951  0.93434868  0.86801648     0.94700
O545        O  0.01039782  0.91059083  0.78892018    -0.78500
O546        O  0.43284320  0.81339227  0.88137927    -0.83700
C547        C  0.40485645  0.76292510  0.81736090     0.97400
C548        C  0.38814218  0.82451096  0.89073925     1.03300
O549        O  0.37367199  0.78452863  0.83346941    -0.79300
C550        C  0.03765992  0.87080868  0.79132859     1.01600
Fe551      Fe  0.18427693  0.78866851  0.68993521     1.65800
Fe552      Fe  0.07313276  0.75921944  0.72150131     1.73200
Fe553      Fe  0.10072343  0.88252849  0.70638007     1.54400
O554        O  0.17186658  0.91347174  0.70420715    -0.83000
O555        O  0.01628638  0.78979315  0.69409368    -0.81400
O556        O  0.21690870  0.84556259  0.71453725    -0.85600
O557        O  0.17322879  0.83735825  0.65524808    -0.80400
O558        O  0.09637039  0.88407256  0.75176777    -0.82200
O559        O  0.08340375  0.70738399  0.68795031    -0.84900
C560        C  0.13434963  0.85919564  0.64443779     0.95800
C561        C  0.21387129  0.89140138  0.70604302     1.03300
O562        O  0.12035271  0.80943877  0.70670048    -1.13900
O563        O  0.12931072  0.72241133  0.74728672    -0.76300
O564        O  0.20127107  0.73697577  0.72253366    -0.79800
O565        O  0.09963203  0.87909577  0.66031999    -0.80500
C566        C  0.17700930  0.71520557  0.74301847     0.94700
O567        O  0.15325564  0.73114558  0.66392327    -0.78500
O568        O  0.05604734  0.80870554  0.75637913    -0.83700
C569        C  0.00557402  0.83668216  0.69236300     0.97400
C570        C  0.06716994  0.85340507  0.76573718     1.03300
O571        O  0.02717534  0.86786032  0.70847467    -0.79300
C572        C  0.11347103  0.70388424  0.66633082     1.01600
Fe573      Fe  0.03133395  0.55726451  0.56493290     1.65800
Fe574      Fe  0.50188559  0.66840164  0.59650221     1.73200
Fe575      Fe  0.12520371  0.64080725  0.58138302     1.54400
O576        O  0.15614252  0.56966130  0.57921325    -0.83000
O577        O  0.03246341  0.72524473  0.56909553    -0.81400
O578        O  0.08822161  0.52462910  0.58953742    -0.85600
O579        O  0.08003404  0.56830609  0.53024877    -0.80400
O580        O  0.12674250  0.64516972  0.62677151    -0.82200
O581        O  0.45004847  0.65813331  0.56295093    -0.84900
C582        C  0.10187851  0.60717902  0.51944003     0.95800
C583        C  0.13406392  0.52766108  0.58104441     1.03300
O584        O  0.05210821  0.62118347  0.58170093    -1.13900
O585        O  0.46507529  0.61222550  0.62228693    -0.76300
O586        O  0.47963188  0.54027308  0.59752844    -0.79800
O587        O  0.12178066  0.64189354  0.53532349    -0.80500
C588        C  0.45786568  0.56453074  0.61801624     0.94700
O589        O  0.47381678  0.58829194  0.53891891    -0.78500
O590        O  0.05137044  0.68548943  0.63138017    -0.83700
C591        C  0.07935502  0.73595707  0.56736241     0.97400
C592        C  0.09607202  0.67437062  0.64073929     1.03300
O593        O  0.11053991  0.71435515  0.58347104    -0.79300
C594        C  0.44655413  0.62807349  0.54132825     1.01600
Fe595      Fe  0.29993985  0.71021192  0.93993493     1.65800
Fe596      Fe  0.41108467  0.73966269  0.97150131     1.73200
Fe597      Fe  0.38349481  0.61635357  0.95637830     1.54400
O598        O  0.31235256  0.58540918  0.95420339    -0.83000
O599        O  0.46793238  0.70908797  0.94409398    -0.81400
O600        O  0.26730952  0.65331694  0.96453592    -0.85600
O601        O  0.31098909  0.66152257  0.90524745    -0.80400
O602        O  0.38784600  0.61480979  0.00176590    -0.82200
O603        O  0.40081390  0.79149644  0.93794950    -0.84900
C604        C  0.34986795  0.63968754  0.89443669     0.95800
C605        C  0.27034746  0.60747847  0.95604067     1.03300
O606        O  0.36386463  0.68944308  0.95670003    -1.13900
O607        O  0.35490561  0.77647178  0.99728617    -0.76300
O608        O  0.28294507  0.76190274  0.97253432    -0.79800
O609        O  0.38458719  0.61978789  0.91031838    -0.80500
C610        C  0.30720652  0.78367456  0.99301880     0.94700
O611        O  0.33095977  0.76773645  0.91392430    -0.78500
O612        O  0.42816852  0.69017708  0.50637956    -0.83700
C613        C  0.47864433  0.66219904  0.94236349     0.97400
C614        C  0.41704578  0.64547763  0.51573667     1.03300
O615        O  0.45704227  0.63102255  0.95847531    -0.79300
C616        C  0.37074453  0.79499740  0.91633094     1.01600
Fe617      Fe  0.04993528  0.53868094  0.94174339     1.65800
Fe618      Fe  0.16108575  0.50923124  0.91018230     1.73200
Fe619      Fe  0.13349124  0.63254106  0.92530156     1.54400
O620        O  0.06234905  0.66348644  0.92747145    -0.83000
O621        O  0.21793061  0.53980785  0.93759024    -0.81400
O622        O  0.01730465  0.59557744  0.91714353    -0.85600
O623        O  0.06097986  0.58736893  0.97643168    -0.80400
O624        O  0.13785325  0.63408253  0.87991372    -0.82200
O625        O  0.15081231  0.95739980  0.94373495    -0.84900
C626        C  0.09985811  0.60920901  0.98724287     0.95800
C627        C  0.02034404  0.64141632  0.92563864     1.03300
O628        O  0.11386236  0.55945111  0.92498060    -1.13900
O629        O  0.10491160  0.97241790  0.88439619    -0.76300
O630        O  0.03294549  0.98698967  0.90914328    -0.79800
O631        O  0.13457535  0.62910947  0.97136189    -0.80500
C632        C  0.05721197  0.96521413  0.88866174     0.94700
O633        O  0.08095171  0.98115473  0.96775554    -0.78500
O634        O  0.17817423  0.55871399  0.87530387    -0.83700
C635        C  0.22864352  0.58669640  0.93932002     0.97400
C636        C  0.16705478  0.60341339  0.86594525     1.03300
O637        O  0.20703981  0.61787455  0.92320982    -0.79300
C638        C  0.12073830  0.95389511  0.96535100     1.01600
Fe639      Fe  0.28134691  0.69162181  0.81674516     1.65800
Fe640      Fe  0.25190161  0.58047802  0.78518166     1.73200
Fe641      Fe  0.37521988  0.60807858  0.80029696     1.54400
O642        O  0.40615894  0.67922484  0.80246102    -0.83000
O643        O  0.28248184  0.52363911  0.81258947    -0.81400
O644        O  0.33823615  0.72425718  0.79214153    -0.85600
O645        O  0.33004549  0.68058469  0.85143036    -0.80400
O646        O  0.37675736  0.60370413  0.75490833    -0.82200
O647        O  0.20006589  0.59074879  0.81873337    -0.84900
C648        C  0.35189512  0.64171211  0.86223962     0.95800
C649        C  0.38407854  0.72122453  0.80063465     1.03300
O650        O  0.30212326  0.62770074  0.79997947    -1.13900
O651        O  0.21508680  0.63664857  0.75939523    -0.76300
O652        O  0.22964491  0.70860699  0.78414856    -0.79800
O653        O  0.37179903  0.60700085  0.84635694    -0.80500
C654        C  0.20787556  0.68434385  0.76366372     0.94700
O655        O  0.22382862  0.66059735  0.84276054    -0.78500
O656        O  0.30138422  0.56338602  0.75030359    -0.83700
C657        C  0.32937338  0.51292586  0.81432154     0.97400
C658        C  0.34608513  0.57450165  0.74094273     1.03300
O659        O  0.36055959  0.53452958  0.79821446    -0.79300
C660        C  0.19656760  0.62081369  0.84035359     1.01600
Fe661      Fe  0.43428257  0.96019844  0.69174316     1.65800
Fe662      Fe  0.32313184  0.98964603  0.66018301     1.73200
Fe663      Fe  0.35072642  0.86633679  0.67530110     1.54400
O664        O  0.42186975  0.83539142  0.67746989    -0.83000
O665        O  0.26628800  0.95907057  0.68759188    -0.81400
O666        O  0.46691326  0.90330097  0.66714256    -0.85600
O667        O  0.42323807  0.91151222  0.72643151    -0.80400
O668        O  0.34636238  0.86479319  0.62991305    -0.82200
O669        O  0.33340586  0.54147951  0.69373495    -0.84900
C670        C  0.38436111  0.88967268  0.73724263     0.95800
C671        C  0.46387448  0.85746239  0.67563756     1.03300
O672        O  0.37035580  0.93942698  0.67498047    -1.13900
O673        O  0.37930488  0.52645891  0.63439649    -0.76300
O674        O  0.45127124  0.51188929  0.65914252    -0.79800
O675        O  0.34964391  0.86976966  0.72136140    -0.80500
C676        C  0.42700443  0.53366372  0.63866127     0.94700
O677        O  0.40326576  0.51772515  0.71775551    -0.78500
O678        O  0.30604202  0.94016216  0.62530483    -0.83700
C679        C  0.25557489  0.91218175  0.68932138     0.97400
C680        C  0.31716112  0.89546250  0.61594545     1.03300
O681        O  0.27717776  0.88100259  0.67321059    -0.79300
C682        C  0.36347935  0.54498439  0.71535113     1.01600
Fe683      Fe  0.20286659  0.80725757  0.56674453     1.65800
Fe684      Fe  0.23231347  0.91840152  0.53518320     1.73200
Fe685      Fe  0.10899526  0.89080233  0.55029774     1.54400
O686        O  0.07805394  0.81965693  0.55246182    -0.83000
O687        O  0.20173261  0.97524217  0.56259085    -0.81400
O688        O  0.14597512  0.77462241  0.54214168    -0.85600
O689        O  0.15417041  0.81829647  0.60143052    -0.80400
O690        O  0.10745848  0.89517665  0.50490830    -0.82200
O691        O  0.28414704  0.90813080  0.56873549    -0.84900
C692        C  0.13232315  0.85716897  0.61224048     0.95800
C693        C  0.10013332  0.77765647  0.55063571     1.03300
O694        O  0.18209118  0.87117932  0.54997975    -1.13900
O695        O  0.26913053  0.86223105  0.50939719    -0.76300
O696        O  0.25456654  0.79027185  0.53414679    -0.79800
O697        O  0.11241851  0.89188083  0.59635817    -0.80500
C698        C  0.27633963  0.81453562  0.51366412     0.94700
O699        O  0.26038778  0.83828008  0.59275900    -0.78500
O700        O  0.18283260  0.93549275  0.00030409    -0.83700
C701        C  0.15484122  0.98595588  0.56432248     0.97400
C702        C  0.13813113  0.92437825  0.99094296     1.03300
O703        O  0.12365637  0.96435096  0.54821541    -0.79300
C704        C  0.28764777  0.87806425  0.59035364     1.01600
Fe705      Fe  0.95288055  0.44161834  0.31493429     1.65800
Fe706      Fe  0.98232710  0.33047949  0.34650104     1.73200
Fe707      Fe  0.85900933  0.35807660  0.33138327     1.54400
O708        O  0.82807062  0.42922287  0.32921559    -0.83000
O709        O  0.95174769  0.27363737  0.31909346    -0.81400
O710        O  0.89599243  0.47425507  0.33953851    -0.85600
O711        O  0.90418193  0.43057645  0.28024924    -0.80400
O712        O  0.85747137  0.35371142  0.37677229    -0.82200
O713        O  0.53416357  0.34074731  0.31294992    -0.84900
C714        C  0.88233668  0.39170177  0.26944002     0.95800
C715        C  0.85015020  0.47122278  0.33104512     1.03300
O716        O  0.93210544  0.37769967  0.33170140    -1.13900
O717        O  0.51913925  0.38665436  0.37228626    -0.76300
O718        O  0.50458206  0.45860827  0.34753016    -0.79800
O719        O  0.86243324  0.35699027  0.28532314    -0.80500
C720        C  0.52634944  0.43434897  0.36801646     0.94700
O721        O  0.51039800  0.41059075  0.28892029    -0.78500
O722        O  0.93284323  0.31339225  0.38137933    -0.83700
C723        C  0.90485603  0.26292533  0.31736090     0.97400
C724        C  0.88814268  0.32451070  0.39073942     1.03300
O725        O  0.87367197  0.28452860  0.33346949    -0.79300
C726        C  0.53765988  0.37080820  0.29132876     1.01600
Fe727      Fe  0.68427710  0.28866869  0.18993511     1.65800
Fe728      Fe  0.57313261  0.25921947  0.22150141     1.73200
Fe729      Fe  0.60072341  0.38252863  0.20637999     1.54400
O730        O  0.67186655  0.41347188  0.20420704    -0.83000
O731        O  0.51628627  0.28979323  0.19409358    -0.81400
O732        O  0.71690861  0.34556294  0.21453738    -0.85600
O733        O  0.67322833  0.33735837  0.15524813    -0.80400
O734        O  0.59637032  0.38407289  0.25176763    -0.82200
O735        O  0.58340389  0.20738413  0.18795017    -0.84900
C736        C  0.63434917  0.35919596  0.14443781     0.95800
C737        C  0.71387120  0.39140161  0.20604287     1.03300
O738        O  0.62035275  0.30943871  0.20670053    -1.13900
O739        O  0.62931030  0.22241143  0.24728678    -0.76300
O740        O  0.70127069  0.23697585  0.22253374    -0.79800
O741        O  0.59963192  0.37909560  0.16032011    -0.80500
C742        C  0.67700895  0.21520568  0.24301856     0.94700
O743        O  0.65325560  0.23114549  0.16392325    -0.78500
O744        O  0.55604726  0.30870574  0.25637922    -0.83700
C745        C  0.50557389  0.33668187  0.19236281     0.97400
C746        C  0.56717014  0.35340558  0.26573715     1.03300
O747        O  0.52717524  0.36786028  0.20847456    -0.79300
C748        C  0.61347142  0.20388428  0.16633062     1.01600
Fe749      Fe  0.53133389  0.05726457  0.06493298     1.65800
Fe750      Fe  0.00188583  0.16840185  0.09650226     1.73200
Fe751      Fe  0.62520369  0.14080728  0.08138311     1.54400
O752        O  0.65614255  0.06966111  0.07921336    -0.83000
O753        O  0.53246371  0.22524471  0.06909550    -0.81400
O754        O  0.58822193  0.02462949  0.08953748    -0.85600
O755        O  0.58003399  0.06830629  0.03024870    -0.80400
O756        O  0.62674214  0.14516990  0.12677140    -0.82200
O757        O  0.95004857  0.15813340  0.06295104    -0.84900
C758        C  0.60187892  0.10717919  0.01943995     0.95800
C759        C  0.63406434  0.02766109  0.08104451     1.03300
O760        O  0.55210834  0.12118335  0.08170094    -1.13900
O761        O  0.96507519  0.11222569  0.12228701    -0.76300
O762        O  0.97963213  0.04027309  0.09752825    -0.79800
O763        O  0.62178064  0.14189357  0.03532337    -0.80500
C764        C  0.95786557  0.06453090  0.11801610     0.94700
O765        O  0.97381685  0.08829188  0.03891907    -0.78500
O766        O  0.55137051  0.18548945  0.13138028    -0.83700
C767        C  0.57935550  0.23595712  0.06736255     0.97400
C768        C  0.59607160  0.17437083  0.14073933     1.03300
O769        O  0.61053965  0.21435513  0.08347114    -0.79300
C770        C  0.94655427  0.12807365  0.04132829     1.01600
Fe771      Fe  0.79993999  0.21021181  0.43993512     1.65800
Fe772      Fe  0.91108484  0.23966264  0.47150143     1.73200
Fe773      Fe  0.88349499  0.11635370  0.45637818     1.54400
O774        O  0.81235239  0.08540903  0.45420331    -0.83000
O775        O  0.96793264  0.20908831  0.44409384    -0.81400
O776        O  0.76730955  0.15331672  0.46453599    -0.85600
O777        O  0.81098933  0.16152265  0.40524749    -0.80400
O778        O  0.88784626  0.11480972  0.50176609    -0.82200
O779        O  0.90081427  0.29149650  0.43794961    -0.84900
C780        C  0.84986834  0.13968742  0.39443674     0.95800
C781        C  0.77034740  0.10747800  0.45604076     1.03300
O782        O  0.86386433  0.18944285  0.45669996    -1.13900
O783        O  0.85490575  0.27647181  0.49728638    -0.76300
O784        O  0.78294498  0.26190280  0.47253434    -0.79800
O785        O  0.88458752  0.11978778  0.41031846    -0.80500
C786        C  0.80720664  0.28367453  0.49301888     0.94700
O787        O  0.83096003  0.26773652  0.41392425    -0.78500
O788        O  0.92816859  0.19017728  0.00637943    -0.83700
C789        C  0.97864457  0.16219925  0.44236358     0.97400
C790        C  0.91704543  0.14547770  0.01573656     1.03300
O791        O  0.95704242  0.13102235  0.45847548    -0.79300
C792        C  0.87074482  0.29499723  0.41633092     1.01600
Fe793      Fe  0.54993541  0.03868084  0.44174342     1.65800
Fe794      Fe  0.66108582  0.00923103  0.41018227     1.73200
Fe795      Fe  0.63349145  0.13254092  0.42530173     1.54400
O796        O  0.56234922  0.16348617  0.42747147    -0.83000
O797        O  0.71793059  0.03980785  0.43759025    -0.81400
O798        O  0.51730489  0.09557746  0.41714348    -0.85600
O799        O  0.56098000  0.08736915  0.47643149    -0.80400
O800        O  0.63785320  0.13408275  0.37991364    -0.82200
O801        O  0.65081237  0.45739957  0.44373499    -0.84900
C802        C  0.59985848  0.10920900  0.48724278     0.95800
C803        C  0.52034411  0.14141602  0.42563876     1.03300
O804        O  0.61386247  0.05945078  0.42498070    -1.13900
O805        O  0.60491142  0.47241804  0.38439647    -0.76300
O806        O  0.53294580  0.48698943  0.40914328    -0.79800
O807        O  0.63457527  0.12910940  0.47136175    -0.80500
C808        C  0.55721190  0.46521441  0.38866166     0.94700
O809        O  0.58095140  0.48115496  0.46775573    -0.78500
O810        O  0.67817410  0.05871426  0.37530376    -0.83700
C811        C  0.72864325  0.08669682  0.43931996     0.97400
C812        C  0.66705445  0.10341364  0.36594510     1.03300
O813        O  0.70703964  0.11787494  0.42320983    -0.79300
C814        C  0.62073782  0.45389515  0.46535115     1.01600
Fe815      Fe  0.78134669  0.19162159  0.31674529     1.65800
Fe816      Fe  0.75190158  0.08047802  0.28518153     1.73200
Fe817      Fe  0.87522012  0.10807861  0.30029688     1.54400
O818        O  0.90615874  0.17922510  0.30246098    -0.83000
O819        O  0.78248213  0.02363911  0.31258947    -0.81400
O820        O  0.83823618  0.22425712  0.29214172    -0.85600
O821        O  0.83004521  0.18058493  0.35143016    -0.80400
O822        O  0.87675710  0.10370422  0.25490826    -0.82200
O823        O  0.70006578  0.09074895  0.31873365    -0.84900
C824        C  0.85189466  0.14171229  0.36223949     0.95800
C825        C  0.88407864  0.22122455  0.30063484     1.03300
O826        O  0.80212335  0.12770074  0.29997938    -1.13900
O827        O  0.71508686  0.13664864  0.25939524    -0.76300
O828        O  0.72964490  0.20860720  0.28414873    -0.79800
O829        O  0.87179893  0.10700073  0.34635687    -0.80500
C830        C  0.70787578  0.18434405  0.26366374     0.94700
O831        O  0.72382878  0.16059736  0.34276061    -0.78500
O832        O  0.80138411  0.06338604  0.25030349    -0.83700
C833        C  0.82937347  0.01292575  0.31432157     0.97400
C834        C  0.84608509  0.07450136  0.24094273     1.03300
O835        O  0.86055938  0.03452969  0.29821464    -0.79300
C836        C  0.69656746  0.12081392  0.34035369     1.01600
Fe837      Fe  0.93428273  0.46019854  0.19174318     1.65800
Fe838      Fe  0.82313188  0.48964612  0.16018301     1.73200
Fe839      Fe  0.85072666  0.36633688  0.17530114     1.54400
O840        O  0.92186972  0.33539149  0.17746979    -0.83000
O841        O  0.76628821  0.45907053  0.18759179    -0.81400
O842        O  0.96691333  0.40330116  0.16714262    -0.85600
O843        O  0.92323826  0.41151240  0.22643160    -0.80400
O844        O  0.84636253  0.36479331  0.12991314    -0.82200
O845        O  0.83340579  0.04147948  0.19373477    -0.84900
C846        C  0.88436120  0.38967247  0.23724264     0.95800
C847        C  0.96387446  0.35746264  0.17563749     1.03300
O848        O  0.87035556  0.43942698  0.17498032    -1.13900
O849        O  0.87930471  0.02645885  0.13439654    -0.76300
O850        O  0.95127130  0.01188933  0.15914257    -0.79800
O851        O  0.84964365  0.36976949  0.22136139    -0.80500
C852        C  0.92700425  0.03366412  0.13866145     0.94700
O853        O  0.90326588  0.01772516  0.21775546    -0.78500
O854        O  0.80604216  0.44016212  0.12530484    -0.83700
C855        C  0.75557491  0.41218171  0.18932125     0.97400
C856        C  0.81716109  0.39546252  0.11594545     1.03300
O857        O  0.77717775  0.38100256  0.17321054    -0.79300
C858        C  0.86347948  0.04498441  0.21535097     1.01600
Fe859      Fe  0.70286670  0.30725768  0.06674448     1.65800
Fe860      Fe  0.73231355  0.41840164  0.03518320     1.73200
Fe861      Fe  0.60899517  0.39080242  0.05029759     1.54400
O862        O  0.57805377  0.31965694  0.05246185    -0.83000
O863        O  0.70173289  0.47524240  0.06259086    -0.81400
O864        O  0.64597510  0.27462268  0.04214167    -0.85600
O865        O  0.65417066  0.31829612  0.10143035    -0.80400
O866        O  0.60745868  0.39517678  0.00490837    -0.82200
O867        O  0.78414692  0.40813085  0.06873539    -0.84900
C868        C  0.63232336  0.35716847  0.11224036     0.95800
C869        C  0.60013281  0.27765672  0.05063560     1.03300
O870        O  0.68209120  0.37117926  0.04997976    -1.13900
O871        O  0.76913049  0.36223105  0.00939728    -0.76300
O872        O  0.75456637  0.29027180  0.03414688    -0.79800
O873        O  0.61241867  0.39188095  0.09635812    -0.80500
C874        C  0.77633928  0.31453551  0.01366411     0.94700
O875        O  0.76038735  0.33827983  0.09275899    -0.78500
O876        O  0.68283276  0.43549273  0.50030410    -0.83700
C877        C  0.65484126  0.48595580  0.06432245     0.97400
C878        C  0.63813163  0.42437828  0.49094287     1.03300
O879        O  0.62365631  0.46435099  0.04821527    -0.79300
C880        C  0.78764771  0.37806379  0.09035352     1.01600
Fe881      Fe  0.95288041  0.44161820  0.81493435     1.65800
Fe882      Fe  0.98232686  0.33047964  0.84650101     1.73200
Fe883      Fe  0.85900953  0.35807654  0.83138327     1.54400
O884        O  0.82807075  0.42922271  0.82921550    -0.83000
O885        O  0.95174788  0.27363736  0.81909339    -0.81400
O886        O  0.89599224  0.47425492  0.83953863    -0.85600
O887        O  0.90418175  0.43057636  0.78024929    -0.80400
O888        O  0.85747057  0.35371153  0.87677225    -0.82200
O889        O  0.53416353  0.34074772  0.81294987    -0.84900
C890        C  0.88233679  0.39170210  0.76943995     0.95800
C891        C  0.85014987  0.47122253  0.83104499     1.03300
O892        O  0.93210549  0.37769944  0.83170156    -1.13900
O893        O  0.51913892  0.38665419  0.87228628    -0.76300
O894        O  0.50458204  0.45860816  0.84753008    -0.79800
O895        O  0.86243325  0.35699015  0.78532299    -0.80500
C896        C  0.52634968  0.43434869  0.86801628     0.94700
O897        O  0.51039795  0.41059097  0.78892013    -0.78500
O898        O  0.93284351  0.31339237  0.88137933    -0.83700
C899        C  0.90485651  0.26292510  0.81736098     0.97400
C900        C  0.88814234  0.32451087  0.89073930     1.03300
O901        O  0.87367187  0.28452875  0.83346950    -0.79300
C902        C  0.53765988  0.37080876  0.79132859     1.01600
Fe903      Fe  0.68427694  0.28866853  0.68993524     1.65800
Fe904      Fe  0.57313275  0.25921965  0.72150124     1.73200
Fe905      Fe  0.60072347  0.38252855  0.70638005     1.54400
O906        O  0.67186662  0.41347180  0.70420718    -0.83000
O907        O  0.51628629  0.28979308  0.69409365    -0.81400
O908        O  0.71690869  0.34556289  0.71453719    -0.85600
O909        O  0.67322863  0.33735811  0.65524805    -0.80400
O910        O  0.59637035  0.38407266  0.75176770    -0.82200
O911        O  0.58340372  0.20738397  0.68795023    -0.84900
C912        C  0.63434969  0.35919572  0.64443777     0.95800
C913        C  0.71387120  0.39140165  0.70604285     1.03300
O914        O  0.62035276  0.30943851  0.70670049    -1.13900
O915        O  0.62931070  0.22241160  0.74728670    -0.76300
O916        O  0.70127107  0.23697582  0.72253356    -0.79800
O917        O  0.59963226  0.37909576  0.66032001    -0.80500
C918        C  0.67700924  0.21520567  0.74301838     0.94700
O919        O  0.65325551  0.23114557  0.66392329    -0.78500
O920        O  0.55604744  0.30870572  0.75637923    -0.83700
C921        C  0.50557432  0.33668222  0.69236293     0.97400
C922        C  0.56716982  0.35340536  0.76573713     1.03300
O923        O  0.52717543  0.36786074  0.70847475    -0.79300
C924        C  0.61347095  0.20388415  0.66633084     1.01600
Fe925      Fe  0.53133379  0.05726422  0.56493280     1.65800
Fe926      Fe  0.00188574  0.16840157  0.59650227     1.73200
Fe927      Fe  0.62520375  0.14080707  0.58138300     1.54400
O928        O  0.65614262  0.06966143  0.57921328    -0.83000
O929        O  0.53246340  0.22524468  0.56909542    -0.81400
O930        O  0.58822150  0.02462911  0.58953746    -0.85600
O931        O  0.58003405  0.06830619  0.53024877    -0.80400
O932        O  0.62674242  0.14516974  0.62677155    -0.82200
O933        O  0.95004852  0.15813356  0.56295101    -0.84900
C934        C  0.60187883  0.10717920  0.51944004     0.95800
C935        C  0.63406417  0.02766144  0.58104427     1.03300
O936        O  0.55210810  0.12118346  0.58170101    -1.13900
O937        O  0.96507537  0.11222542  0.62228698    -0.76300
O938        O  0.97963190  0.04027325  0.59752848    -0.79800
O939        O  0.62178083  0.14189368  0.53532347    -0.80500
C940        C  0.95786567  0.06453078  0.61801628     0.94700
O941        O  0.97381701  0.08829203  0.53891892    -0.78500
O942        O  0.55137078  0.18548931  0.63138015    -0.83700
C943        C  0.57935499  0.23595717  0.56736248     0.97400
C944        C  0.59607226  0.17437059  0.64073931     1.03300
O945        O  0.61054009  0.21435513  0.58347100    -0.79300
C946        C  0.94655423  0.12807375  0.54132834     1.01600
Fe947      Fe  0.79993980  0.21021179  0.93993494     1.65800
Fe948      Fe  0.91108463  0.23966259  0.97150129     1.73200
Fe949      Fe  0.88349491  0.11635355  0.95637833     1.54400
O950        O  0.81235258  0.08540875  0.95420329    -0.83000
O951        O  0.96793233  0.20908795  0.94409394    -0.81400
O952        O  0.76730943  0.15331690  0.96453598    -0.85600
O953        O  0.81098924  0.16152244  0.90524751    -0.80400
O954        O  0.88784600  0.11480981  0.00176587    -0.82200
O955        O  0.90081406  0.29149624  0.93794950    -0.84900
C956        C  0.84986805  0.13968739  0.89443667     0.95800
C957        C  0.77034754  0.10747813  0.95604067     1.03300
O958        O  0.86386466  0.18944310  0.95670005    -1.13900
O959        O  0.85490561  0.27647162  0.99728623    -0.76300
O960        O  0.78294514  0.26190260  0.97253431    -0.79800
O961        O  0.88458700  0.11978768  0.91031832    -0.80500
C962        C  0.80720660  0.28367460  0.99301875     0.94700
O963        O  0.83095988  0.26773642  0.91392424    -0.78500
O964        O  0.92816880  0.19017736  0.50637959    -0.83700
C965        C  0.97864445  0.16219908  0.94236351     0.97400
C966        C  0.91704557  0.14547770  0.51573673     1.03300
O967        O  0.95704241  0.13102237  0.95847532    -0.79300
C968        C  0.87074467  0.29499730  0.91633093     1.01600
Fe969      Fe  0.54993529  0.03868107  0.94174350     1.65800
Fe970      Fe  0.66108567  0.00923115  0.91018232     1.73200
Fe971      Fe  0.63349123  0.13254098  0.92530154     1.54400
O972        O  0.56234907  0.16348659  0.92747145    -0.83000
O973        O  0.71793036  0.03980783  0.93759029    -0.81400
O974        O  0.51730470  0.09557752  0.91714352    -0.85600
O975        O  0.56097976  0.08736898  0.97643160    -0.80400
O976        O  0.63785300  0.13408285  0.87991374    -0.82200
O977        O  0.65081220  0.45739984  0.94373495    -0.84900
C978        C  0.59985807  0.10920925  0.98724286     0.95800
C979        C  0.52034400  0.14141648  0.92563845     1.03300
O980        O  0.61386252  0.05945078  0.92498056    -1.13900
O981        O  0.60491160  0.47241780  0.88439625    -0.76300
O982        O  0.53294585  0.48698970  0.90914320    -0.79800
O983        O  0.63457535  0.12910950  0.97136195    -0.80500
C984        C  0.55721207  0.46521420  0.88866161     0.94700
O985        O  0.58095172  0.48115450  0.96775543    -0.78500
O986        O  0.67817399  0.05871440  0.87530379    -0.83700
C987        C  0.72864346  0.08669655  0.93931993     0.97400
C988        C  0.66705448  0.10341412  0.86594529     1.03300
O989        O  0.70703981  0.11787470  0.92320982    -0.79300
C990        C  0.62073823  0.45389517  0.96535108     1.01600
Fe991      Fe  0.78134699  0.19162198  0.81674518     1.65800
Fe992      Fe  0.75190183  0.08047808  0.78518169     1.73200
Fe993      Fe  0.87522001  0.10807857  0.80029697     1.54400
O994        O  0.90615873  0.17922500  0.80246103    -0.83000
O995        O  0.78248207  0.02363900  0.81258957    -0.81400
O996        O  0.83823631  0.22425724  0.79214161    -0.85600
O997        O  0.83004539  0.18058459  0.85143046    -0.80400
O998        O  0.87675740  0.10370401  0.75490820    -0.82200
O999        O  0.70006600  0.09074900  0.81873342    -0.84900
C1000       C  0.85189499  0.14171223  0.86223965     0.95800
C1001       C  0.88407845  0.22122472  0.80063471     1.03300
O1002       O  0.80212313  0.12770053  0.79997931    -1.13900
O1003       O  0.71508690  0.13664889  0.75939536    -0.76300
O1004       O  0.72964475  0.20860692  0.78414857    -0.79800
O1005       O  0.87179892  0.10700106  0.84635691    -0.80500
C1006       C  0.70787544  0.18434401  0.76366372     0.94700
O1007       O  0.72382849  0.16059712  0.84276039    -0.78500
O1008       O  0.80138406  0.06338605  0.75030354    -0.83700
C1009       C  0.82937317  0.01292578  0.81432164     0.97400
C1010       C  0.84608506  0.07450136  0.74094274     1.03300
O1011       O  0.86055937  0.03452962  0.79821439    -0.79300
C1012       C  0.69656739  0.12081344  0.84035348     1.01600
Fe1013     Fe  0.93428247  0.46019853  0.69174315     1.65800
Fe1014     Fe  0.82313166  0.48964600  0.66018314     1.73200
Fe1015     Fe  0.85072663  0.36633665  0.67530106     1.54400
O1016       O  0.92186982  0.33539172  0.67746975    -0.83000
O1017       O  0.76628816  0.45907033  0.68759180    -0.81400
O1018       O  0.96691289  0.40330088  0.66714258    -0.85600
O1019       O  0.92323806  0.41151228  0.72643153    -0.80400
O1020       O  0.84636230  0.36479350  0.62991308    -0.82200
O1021       O  0.83340582  0.04147954  0.69373493    -0.84900
C1022       C  0.88436077  0.38967238  0.73724262     0.95800
C1023       C  0.96387440  0.35746254  0.67563776     1.03300
O1024       O  0.87035581  0.43942708  0.67498048    -1.13900
O1025       O  0.87930493  0.02645874  0.63439639    -0.76300
O1026       O  0.95127139  0.01188926  0.65914253    -0.79800
O1027       O  0.84964376  0.36976965  0.72136137    -0.80500
C1028       C  0.92700447  0.03366372  0.63866130     0.94700
O1029       O  0.90326567  0.01772520  0.71775567    -0.78500
O1030       O  0.80604223  0.44016189  0.62530484    -0.83700
C1031       C  0.75557499  0.41218167  0.68932139     0.97400
C1032       C  0.81716104  0.39546255  0.61594542     1.03300
O1033       O  0.77717792  0.38100294  0.67321073    -0.79300
C1034       C  0.86347940  0.04498449  0.71535115     1.01600
Fe1035     Fe  0.70286664  0.30725777  0.56674451     1.65800
Fe1036     Fe  0.73231342  0.41840168  0.53518304     1.73200
Fe1037     Fe  0.60899528  0.39080254  0.55029770     1.54400
O1038       O  0.57805415  0.31965685  0.55246185    -0.83000
O1039       O  0.70173287  0.47524252  0.56259101    -0.81400
O1040       O  0.64597495  0.27462244  0.54214175    -0.85600
O1041       O  0.65417055  0.31829625  0.60143054    -0.80400
O1042       O  0.60745831  0.39517689  0.50490829    -0.82200
O1043       O  0.78414700  0.40813078  0.56873547    -0.84900
C1044       C  0.63232338  0.35716898  0.61224046     0.95800
C1045       C  0.60013329  0.27765638  0.55063574     1.03300
O1046       O  0.68209128  0.37117920  0.54997980    -1.13900
O1047       O  0.76913053  0.36223096  0.50939728    -0.76300
O1048       O  0.75456670  0.29027160  0.53414685    -0.79800
O1049       O  0.61241836  0.39188097  0.59635822    -0.80500
C1050       C  0.77633957  0.31453544  0.51366416     0.94700
O1051       O  0.76038770  0.33828000  0.59275913    -0.78500
O1052       O  0.68283252  0.43549261  0.00030412    -0.83700
C1053       C  0.65484181  0.48595604  0.56432256     0.97400
C1054       C  0.63813138  0.42437840  0.99094299     1.03300
O1055       O  0.62365622  0.46435094  0.54821531    -0.79300
C1056       C  0.78764764  0.37806411  0.59035372     1.01600
Fe1057     Fe  0.95288041  0.94161834  0.31493426     1.65800
Fe1058     Fe  0.98232697  0.83047961  0.34650098     1.73200
Fe1059     Fe  0.85900941  0.85807662  0.33138326     1.54400
O1060       O  0.82807058  0.92922293  0.32921554    -0.83000
O1061       O  0.95174783  0.77363743  0.31909342    -0.81400
O1062       O  0.89599229  0.97425499  0.33953851    -0.85600
O1063       O  0.90418199  0.93057651  0.28024930    -0.80400
O1064       O  0.85747099  0.85371128  0.37677223    -0.82200
O1065       O  0.53416341  0.84074767  0.31294991    -0.84900
C1066       C  0.88233665  0.89170188  0.26944006     0.95800
C1067       C  0.85015005  0.97122279  0.33104511     1.03300
O1068       O  0.93210546  0.87769938  0.33170151    -1.13900
O1069       O  0.51913903  0.88665429  0.37228622    -0.76300
O1070       O  0.50458202  0.95860809  0.34753015    -0.79800
O1071       O  0.86243327  0.85698999  0.28532309    -0.80500
C1072       C  0.52634948  0.93434885  0.36801642     0.94700
O1073       O  0.51039794  0.91059106  0.28892019    -0.78500
O1074       O  0.93284336  0.81339229  0.38137932    -0.83700
C1075       C  0.90485629  0.76292520  0.31736101     0.97400
C1076       C  0.88814257  0.82451082  0.39073941     1.03300
O1077       O  0.87367186  0.78452868  0.33346955    -0.79300
C1078       C  0.53765977  0.87080869  0.29132865     1.01600
Fe1079     Fe  0.68427704  0.78866864  0.18993523     1.65800
Fe1080     Fe  0.57313266  0.75921975  0.22150128     1.73200
Fe1081     Fe  0.60072330  0.88252856  0.20637998     1.54400
O1082       O  0.67186674  0.91347176  0.20420709    -0.83000
O1083       O  0.51628621  0.78979300  0.19409351    -0.81400
O1084       O  0.71690853  0.84556329  0.21453723    -0.85600
O1085       O  0.67322844  0.83735810  0.15524803    -0.80400
O1086       O  0.59637029  0.88407282  0.25176757    -0.82200
O1087       O  0.58340369  0.70738412  0.18795016    -0.84900
C1088       C  0.63434994  0.85919555  0.14443777     0.95800
C1089       C  0.71387126  0.89140182  0.20604283     1.03300
O1090       O  0.62035261  0.80943856  0.20670065    -1.13900
O1091       O  0.62931077  0.72241162  0.24728671    -0.76300
O1092       O  0.70127088  0.73697601  0.22253363    -0.79800
O1093       O  0.59963228  0.87909545  0.16032014    -0.80500
C1094       C  0.67700925  0.71520573  0.24301841     0.94700
O1095       O  0.65325554  0.73114544  0.16392327    -0.78500
O1096       O  0.55604737  0.80870571  0.25637925    -0.83700
C1097       C  0.50557413  0.83668202  0.19236283     0.97400
C1098       C  0.56716992  0.85340546  0.26573711     1.03300
O1099       O  0.52717532  0.86786071  0.20847466    -0.79300
C1100       C  0.61347129  0.70388417  0.16633068     1.01600
Fe1101     Fe  0.53133383  0.55726431  0.06493288     1.65800
Fe1102     Fe  0.00188579  0.66840184  0.09650232     1.73200
Fe1103     Fe  0.62520364  0.64080722  0.08138306     1.54400
O1104       O  0.65614258  0.56966120  0.07921335    -0.83000
O1105       O  0.53246363  0.72524471  0.06909536    -0.81400
O1106       O  0.58822177  0.52462964  0.08953755    -0.85600
O1107       O  0.58003413  0.56830645  0.03024874    -0.80400
O1108       O  0.62674225  0.64516991  0.12677140    -0.82200
O1109       O  0.95004848  0.65813357  0.06295115    -0.84900
C1110       C  0.60187915  0.60717945  0.01943996     0.95800
C1111       C  0.63406435  0.52766136  0.08104436     1.03300
O1112       O  0.55210823  0.62118318  0.08170099    -1.13900
O1113       O  0.96507509  0.61222564  0.12228696    -0.76300
O1114       O  0.97963202  0.54027324  0.09752840    -0.79800
O1115       O  0.62178061  0.64189377  0.03532335    -0.80500
C1116       C  0.95786559  0.56453090  0.11801622     0.94700
O1117       O  0.97381698  0.58829218  0.03891901    -0.78500
O1118       O  0.55137053  0.68548958  0.13138030    -0.83700
C1119       C  0.57935505  0.73595737  0.06736259     0.97400
C1120       C  0.59607174  0.67437083  0.14073932     1.03300
O1121       O  0.61053968  0.71435509  0.08347117    -0.79300
C1122       C  0.94655430  0.62807408  0.04132838     1.01600
Fe1123     Fe  0.79993990  0.71021174  0.43993505     1.65800
Fe1124     Fe  0.91108457  0.73966258  0.47150133     1.73200
Fe1125     Fe  0.88349496  0.61635347  0.45637824     1.54400
O1126       O  0.81235255  0.58540906  0.45420329    -0.83000
O1127       O  0.96793250  0.70908789  0.44409388    -0.81400
O1128       O  0.76730971  0.65331675  0.46453599    -0.85600
O1129       O  0.81098926  0.66152238  0.40524755    -0.80400
O1130       O  0.88784620  0.61480992  0.50176603    -0.82200
O1131       O  0.90081429  0.79149649  0.43794961    -0.84900
C1132       C  0.84986803  0.63968747  0.39443672     0.95800
C1133       C  0.77034743  0.60747825  0.45604079     1.03300
O1134       O  0.86386450  0.68944298  0.45670010    -1.13900
O1135       O  0.85490578  0.77647175  0.49728636    -0.76300
O1136       O  0.78294503  0.76190268  0.47253443    -0.79800
O1137       O  0.88458716  0.61978763  0.41031841    -0.80500
C1138       C  0.80720667  0.78367445  0.49301894     0.94700
O1139       O  0.83095995  0.76773653  0.41392429    -0.78500
O1140       O  0.92816873  0.69017721  0.00637943    -0.83700
C1141       C  0.97864469  0.66219921  0.44236353     0.97400
C1142       C  0.91704532  0.64547755  0.01573660     1.03300
O1143       O  0.95704246  0.63102273  0.45847533    -0.79300
C1144       C  0.87074492  0.79499722  0.41633095     1.01600
Fe1145     Fe  0.54993524  0.53868088  0.44174347     1.65800
Fe1146     Fe  0.66108564  0.50923118  0.41018233     1.73200
Fe1147     Fe  0.63349127  0.63254099  0.42530172     1.54400
O1148       O  0.56234925  0.66348652  0.42747146    -0.83000
O1149       O  0.71793055  0.53980775  0.43759022    -0.81400
O1150       O  0.51730470  0.59557762  0.41714345    -0.85600
O1151       O  0.56097991  0.58736909  0.47643144    -0.80400
O1152       O  0.63785315  0.63408287  0.37991368    -0.82200
O1153       O  0.65081212  0.95739967  0.44373501    -0.84900
C1154       C  0.59985839  0.60920924  0.48724278     0.95800
C1155       C  0.52034414  0.64141651  0.42563857     1.03300
O1156       O  0.61386261  0.55945079  0.42498058    -1.13900
O1157       O  0.60491160  0.97241800  0.38439637    -0.76300
O1158       O  0.53294596  0.98698960  0.40914327    -0.79800
O1159       O  0.63457523  0.62910941  0.47136183    -0.80500
C1160       C  0.55721205  0.96521445  0.38866163     0.94700
O1161       O  0.58095141  0.98115491  0.46775563    -0.78500
O1162       O  0.67817400  0.55871438  0.37530367    -0.83700
C1163       C  0.72864337  0.58669645  0.43932002     0.97400
C1164       C  0.66705452  0.60341402  0.36594520     1.03300
O1165       O  0.70703965  0.61787485  0.42320985    -0.79300
C1166       C  0.62073763  0.95389525  0.46535123     1.01600
Fe1167     Fe  0.78134690  0.69162176  0.31674521     1.65800
Fe1168     Fe  0.75190182  0.58047800  0.28518163     1.73200
Fe1169     Fe  0.87522009  0.60807856  0.30029694     1.54400
O1170       O  0.90615880  0.67922509  0.30246102    -0.83000
O1171       O  0.78248231  0.52363908  0.31258953    -0.81400
O1172       O  0.83823624  0.72425718  0.29214166    -0.85600
O1173       O  0.83004546  0.68058481  0.35143028    -0.80400
O1174       O  0.87675715  0.60370395  0.25490814    -0.82200
O1175       O  0.70006582  0.59074927  0.31873366    -0.84900
C1176       C  0.85189492  0.64171208  0.36223957     0.95800
C1177       C  0.88407854  0.72122466  0.30063482     1.03300
O1178       O  0.80212313  0.62770055  0.29997922    -1.13900
O1179       O  0.71508691  0.63664885  0.25939535    -0.76300
O1180       O  0.72964472  0.70860719  0.28414864    -0.79800
O1181       O  0.87179910  0.60700091  0.34635692    -0.80500
C1182       C  0.70787557  0.68434412  0.26366374     0.94700
O1183       O  0.72382850  0.66059716  0.34276049    -0.78500
O1184       O  0.80138406  0.56338614  0.25030353    -0.83700
C1185       C  0.82937353  0.51292563  0.31432151     0.97400
C1186       C  0.84608481  0.57450117  0.24094263     1.03300
O1187       O  0.86055930  0.53452969  0.29821454    -0.79300
C1188       C  0.69656727  0.62081379  0.34035365     1.01600
Fe1189     Fe  0.93428275  0.96019849  0.19174320     1.65800
Fe1190     Fe  0.82313187  0.98964610  0.16018315     1.73200
Fe1191     Fe  0.85072675  0.86633669  0.17530108     1.54400
O1192       O  0.92186984  0.83539163  0.17746968    -0.83000
O1193       O  0.76628821  0.95907026  0.18759178    -0.81400
O1194       O  0.96691300  0.90330092  0.16714270    -0.85600
O1195       O  0.92323798  0.91151240  0.22643155    -0.80400
O1196       O  0.84636234  0.86479349  0.12991309    -0.82200
O1197       O  0.83340554  0.54147944  0.19373475    -0.84900
C1198       C  0.88436109  0.88967232  0.23724267     0.95800
C1199       C  0.96387449  0.85746266  0.17563760     1.03300
O1200       O  0.87035564  0.93942707  0.17498039    -1.13900
O1201       O  0.87930494  0.52645875  0.13439649    -0.76300
O1202       O  0.95127143  0.51188922  0.15914258    -0.79800
O1203       O  0.84964371  0.86976960  0.22136140    -0.80500
C1204       C  0.92700445  0.53366389  0.13866143     0.94700
O1205       O  0.90326604  0.51772500  0.21775571    -0.78500
O1206       O  0.80604237  0.94016209  0.12530476    -0.83700
C1207       C  0.75557468  0.91218177  0.18932122     0.97400
C1208       C  0.81716098  0.89546240  0.11594543     1.03300
O1209       O  0.77717774  0.88100288  0.17321075    -0.79300
C1210       C  0.86347979  0.54498442  0.21535099     1.01600
Fe1211     Fe  0.70286660  0.80725769  0.06674448     1.65800
Fe1212     Fe  0.73231358  0.91840173  0.03518310     1.73200
Fe1213     Fe  0.60899532  0.89080264  0.05029761     1.54400
O1214       O  0.57805426  0.81965691  0.05246184    -0.83000
O1215       O  0.70173286  0.97524246  0.06259091    -0.81400
O1216       O  0.64597499  0.77462258  0.04214172    -0.85600
O1217       O  0.65417072  0.81829628  0.10143041    -0.80400
O1218       O  0.60745817  0.89517679  0.00490830    -0.82200
O1219       O  0.78414700  0.90813101  0.06873532    -0.84900
C1220       C  0.63232326  0.85716930  0.11224036     0.95800
C1221       C  0.60013322  0.77765642  0.05063555     1.03300
O1222       O  0.68209134  0.87117916  0.04997983    -1.13900
O1223       O  0.76913041  0.86223091  0.00939729    -0.76300
O1224       O  0.75456650  0.79027155  0.03414694    -0.79800
O1225       O  0.61241836  0.89188100  0.09635814    -0.80500
C1226       C  0.77633935  0.81453537  0.01366419     0.94700
O1227       O  0.76038757  0.83827992  0.09275908    -0.78500
O1228       O  0.68283282  0.93549270  0.50030413    -0.83700
C1229       C  0.65484144  0.98595591  0.06432239     0.97400
C1230       C  0.63813183  0.92437831  0.49094289     1.03300
O1231       O  0.62365620  0.96435092  0.04821521    -0.79300
C1232       C  0.78764783  0.87806406  0.09035346     1.01600
Fe1233     Fe  0.95288061  0.94161825  0.81493435     1.65800
Fe1234     Fe  0.98232694  0.83047945  0.84650108     1.73200
Fe1235     Fe  0.85900944  0.85807656  0.83138332     1.54400
O1236       O  0.82807105  0.92922289  0.82921562    -0.83000
O1237       O  0.95174816  0.77363738  0.81909342    -0.81400
O1238       O  0.89599225  0.97425488  0.83953855    -0.85600
O1239       O  0.90418177  0.93057610  0.78024919    -0.80400
O1240       O  0.85747085  0.85371160  0.87677215    -0.82200
O1241       O  0.53416358  0.84074730  0.81294978    -0.84900
C1242       C  0.88233663  0.89170170  0.76943990     0.95800
C1243       C  0.85015062  0.97122299  0.83104505     1.03300
O1244       O  0.93210546  0.87769970  0.83170146    -1.13900
O1245       O  0.51913906  0.88665425  0.87228632    -0.76300
O1246       O  0.50458227  0.95860778  0.84753007    -0.79800
O1247       O  0.86243330  0.85699039  0.78532304    -0.80500
C1248       C  0.52634953  0.93434867  0.86801648     0.94700
O1249       O  0.51039792  0.91059078  0.78892015    -0.78500
O1250       O  0.93284289  0.81339242  0.88137925    -0.83700
C1251       C  0.90485674  0.76292518  0.81736084     0.97400
C1252       C  0.88814198  0.82451101  0.89073928     1.03300
O1253       O  0.87367183  0.78452859  0.83346948    -0.79300
C1254       C  0.53766005  0.87080873  0.79132861     1.01600
Fe1255     Fe  0.68427703  0.78866851  0.68993518     1.65800
Fe1256     Fe  0.57313274  0.75921945  0.72150135     1.73200
Fe1257     Fe  0.60072346  0.88252858  0.70638001     1.54400
O1258       O  0.67186647  0.91347178  0.70420715    -0.83000
O1259       O  0.51628637  0.78979318  0.69409366    -0.81400
O1260       O  0.71690873  0.84556269  0.71453724    -0.85600
O1261       O  0.67322879  0.83735826  0.65524807    -0.80400
O1262       O  0.59637032  0.88407250  0.75176775    -0.82200
O1263       O  0.58340378  0.70738396  0.68795034    -0.84900
C1264       C  0.63434962  0.85919560  0.64443777     0.95800
C1265       C  0.71387121  0.89140154  0.70604298     1.03300
O1266       O  0.62035259  0.80943874  0.70670055    -1.13900
O1267       O  0.62931071  0.72241135  0.74728671    -0.76300
O1268       O  0.70127127  0.73697574  0.72253363    -0.79800
O1269       O  0.59963204  0.87909576  0.66031996    -0.80500
C1270       C  0.67700937  0.71520559  0.74301844     0.94700
O1271       O  0.65325571  0.73114563  0.66392321    -0.78500
O1272       O  0.55604737  0.80870564  0.75637914    -0.83700
C1273       C  0.50557406  0.83668206  0.69236302     0.97400
C1274       C  0.56716994  0.85340505  0.76573721     1.03300
O1275       O  0.52717545  0.86786050  0.70847472    -0.79300
C1276       C  0.61347109  0.70388425  0.66633082     1.01600
Fe1277     Fe  0.53133387  0.55726452  0.56493288     1.65800
Fe1278     Fe  0.00188563  0.66840162  0.59650225     1.73200
Fe1279     Fe  0.62520377  0.64080728  0.58138299     1.54400
O1280       O  0.65614220  0.56966123  0.57921331    -0.83000
O1281       O  0.53246339  0.72524481  0.56909551    -0.81400
O1282       O  0.58822166  0.52462924  0.58953740    -0.85600
O1283       O  0.58003406  0.56830607  0.53024878    -0.80400
O1284       O  0.62674247  0.64516970  0.62677150    -0.82200
O1285       O  0.95004852  0.65813328  0.56295088    -0.84900
C1286       C  0.60187848  0.60717903  0.51944003     0.95800
C1287       C  0.63406365  0.52766097  0.58104441     1.03300
O1288       O  0.55210823  0.62118346  0.58170093    -1.13900
O1289       O  0.96507535  0.61222544  0.62228697    -0.76300
O1290       O  0.97963192  0.54027300  0.59752846    -0.79800
O1291       O  0.62178063  0.64189357  0.53532348    -0.80500
C1292       C  0.95786553  0.56453076  0.61801616     0.94700
O1293       O  0.97381696  0.58829194  0.53891896    -0.78500
O1294       O  0.55137042  0.68548945  0.63138018    -0.83700
C1295       C  0.57935502  0.73595711  0.56736240     0.97400
C1296       C  0.59607201  0.67437063  0.64073929     1.03300
O1297       O  0.61053985  0.71435518  0.58347105    -0.79300
C1298       C  0.94655428  0.62807362  0.54132823     1.01600
Fe1299     Fe  0.79993986  0.71021194  0.93993491     1.65800
Fe1300     Fe  0.91108468  0.73966265  0.97150130     1.73200
Fe1301     Fe  0.88349478  0.61635357  0.95637831     1.54400
O1302       O  0.81235253  0.58540919  0.95420339    -0.83000
O1303       O  0.96793237  0.70908795  0.94409397    -0.81400
O1304       O  0.76730949  0.65331695  0.96453592    -0.85600
O1305       O  0.81098908  0.66152257  0.90524746    -0.80400
O1306       O  0.88784598  0.61480978  0.00176591    -0.82200
O1307       O  0.90081393  0.79149645  0.93794947    -0.84900
C1308       C  0.84986807  0.63968754  0.89443669     0.95800
C1309       C  0.77034743  0.60747847  0.95604068     1.03300
O1310       O  0.86386461  0.68944308  0.95670002    -1.13900
O1311       O  0.85490546  0.77647188  0.99728620    -0.76300
O1312       O  0.78294506  0.76190268  0.97253424    -0.79800
O1313       O  0.88458719  0.61978787  0.91031838    -0.80500
C1314       C  0.80720645  0.78367463  0.99301874     0.94700
O1315       O  0.83095979  0.76773645  0.91392429    -0.78500
O1316       O  0.92816835  0.69017703  0.50637955    -0.83700
C1317       C  0.97864433  0.66219902  0.94236350     0.97400
C1318       C  0.91704553  0.64547751  0.51573667     1.03300
O1319       O  0.95704225  0.63102251  0.95847530    -0.79300
C1320       C  0.87074462  0.79499741  0.91633097     1.01600
Fe1321     Fe  0.54993521  0.53868101  0.94174338     1.65800
Fe1322     Fe  0.66108569  0.50923126  0.91018235     1.73200
Fe1323     Fe  0.63349123  0.63254106  0.92530161     1.54400
O1324       O  0.56234901  0.66348642  0.92747142    -0.83000
O1325       O  0.71793060  0.53980785  0.93759025    -0.81400
O1326       O  0.51730463  0.59557745  0.91714352    -0.85600
O1327       O  0.56097982  0.58736893  0.97643168    -0.80400
O1328       O  0.63785327  0.63408243  0.87991365    -0.82200
O1329       O  0.65081227  0.95739980  0.94373495    -0.84900
C1330       C  0.59985807  0.60920901  0.98724287     0.95800
C1331       C  0.52034402  0.64141630  0.92563863     1.03300
O1332       O  0.61386233  0.55945112  0.92498059    -1.13900
O1333       O  0.60491157  0.97241792  0.88439620    -0.76300
O1334       O  0.53294546  0.98698968  0.90914330    -0.79800
O1335       O  0.63457531  0.62910947  0.97136190    -0.80500
C1336       C  0.55721194  0.96521413  0.88866176     0.94700
O1337       O  0.58095169  0.98115476  0.96775555    -0.78500
O1338       O  0.67817416  0.55871393  0.87530384    -0.83700
C1339       C  0.72864349  0.58669640  0.93932003     0.97400
C1340       C  0.66705496  0.60341326  0.86594523     1.03300
O1341       O  0.70703978  0.61787455  0.92320983    -0.79300
C1342       C  0.62073826  0.95389511  0.96535101     1.01600
Fe1343     Fe  0.78134699  0.69162180  0.81674515     1.65800
Fe1344     Fe  0.75190150  0.58047809  0.78518166     1.73200
Fe1345     Fe  0.87521986  0.60807855  0.80029698     1.54400
O1346       O  0.90615896  0.67922487  0.80246098    -0.83000
O1347       O  0.78248203  0.52363909  0.81258946    -0.81400
O1348       O  0.83823604  0.72425716  0.79214152    -0.85600
O1349       O  0.83004539  0.68058486  0.85143039    -0.80400
O1350       O  0.87675733  0.60370414  0.75490832    -0.82200
O1351       O  0.70006594  0.59074875  0.81873336    -0.84900
C1352       C  0.85189501  0.64171226  0.86223960     0.95800
C1353       C  0.88407828  0.72122467  0.80063464     1.03300
O1354       O  0.80212331  0.62770072  0.79997946    -1.13900
O1355       O  0.71508682  0.63664855  0.75939525    -0.76300
O1356       O  0.72964500  0.70860698  0.78414857    -0.79800
O1357       O  0.87179893  0.60700073  0.84635693    -0.80500
C1358       C  0.70787568  0.68434385  0.76366370     0.94700
O1359       O  0.72382850  0.66059724  0.84276061    -0.78500
O1360       O  0.80138415  0.56338599  0.75030358    -0.83700
C1361       C  0.82937391  0.51292594  0.81432145     0.97400
C1362       C  0.84608510  0.57450163  0.74094272     1.03300
O1363       O  0.86055973  0.53452962  0.79821445    -0.79300
C1364       C  0.69656747  0.62081378  0.84035359     1.01600
Fe1365     Fe  0.93428275  0.96019844  0.69174322     1.65800
Fe1366     Fe  0.82313183  0.98964605  0.66018302     1.73200
Fe1367     Fe  0.85072647  0.86633680  0.67530111     1.54400
O1368       O  0.92186958  0.83539144  0.67746986    -0.83000
O1369       O  0.76628815  0.95907063  0.68759193    -0.81400
O1370       O  0.96691310  0.90330109  0.66714252    -0.85600
O1371       O  0.92323813  0.91151214  0.72643153    -0.80400
O1372       O  0.84636241  0.86479313  0.62991307    -0.82200
O1373       O  0.83340586  0.54147951  0.69373494    -0.84900
C1374       C  0.88436112  0.88967268  0.73724264     0.95800
C1375       C  0.96387419  0.85746236  0.67563762     1.03300
O1376       O  0.87035578  0.93942710  0.67498040    -1.13900
O1377       O  0.87930517  0.52645901  0.63439647    -0.76300
O1378       O  0.95127137  0.51188936  0.65914257    -0.79800
O1379       O  0.84964396  0.86976963  0.72136139    -0.80500
C1380       C  0.92700466  0.53366380  0.63866129     0.94700
O1381       O  0.90326577  0.51772515  0.71775548    -0.78500
O1382       O  0.80604210  0.94016215  0.62530482    -0.83700
C1383       C  0.75557501  0.91218165  0.68932130     0.97400
C1384       C  0.81716121  0.89546249  0.61594544     1.03300
O1385       O  0.77717789  0.88100243  0.67321052    -0.79300
C1386       C  0.86347936  0.54498438  0.71535111     1.01600
Fe1387     Fe  0.70286662  0.80725753  0.56674455     1.65800
Fe1388     Fe  0.73231360  0.91840154  0.53518318     1.73200
Fe1389     Fe  0.60899527  0.89080238  0.55029774     1.54400
O1390       O  0.57805400  0.81965691  0.55246185    -0.83000
O1391       O  0.70173273  0.97524219  0.56259088    -0.81400
O1392       O  0.64597526  0.77462235  0.54214168    -0.85600
O1393       O  0.65417040  0.81829637  0.60143052    -0.80400
O1394       O  0.60745856  0.89517655  0.50490827    -0.82200
O1395       O  0.78414707  0.90813079  0.56873550    -0.84900
C1396       C  0.63232322  0.85716896  0.61224046     0.95800
C1397       C  0.60013341  0.77765645  0.55063569     1.03300
O1398       O  0.68209092  0.87117935  0.54997975    -1.13900
O1399       O  0.76913049  0.86223101  0.50939725    -0.76300
O1400       O  0.75456648  0.79027188  0.53414679    -0.79800
O1401       O  0.61241864  0.89188092  0.59635816    -0.80500
C1402       C  0.77633953  0.81453557  0.51366414     0.94700
O1403       O  0.76038779  0.83828011  0.59275905    -0.78500
O1404       O  0.68283260  0.93549271  0.00030409    -0.83700
C1405       C  0.65484128  0.98595584  0.56432249     0.97400
C1406       C  0.63813111  0.92437825  0.99094296     1.03300
O1407       O  0.62365639  0.96435095  0.54821537    -0.79300
C1408       C  0.78764775  0.87806429  0.59035368     1.01600
loop_ 
_geom_bond_atom_site_label_1 
_geom_bond_atom_site_label_2 
_geom_bond_distance 
_geom_bond_site_symmetry_2 
_ccdc_geom_bond_type 
Fe1           O7   2.057       .  S
Fe1           O6   2.059       .  S
Fe1         O721   2.090       .  S
Fe1         O718   2.065       .  S
Fe1          O12   1.927       .  S
Fe2           O5   2.109       .  S
Fe2          O18   2.105       .  S
Fe2         O713   2.068       .  S
Fe2         O717   2.123       .  S
Fe2          O12   1.936       .  S
Fe3          O21   1.976       .  S
Fe3           O8   2.074       .  S
Fe3          O15   2.103       .  S
Fe3           O4   2.044       .  S
Fe3          O12   1.992       .  S
O4           C11   1.252       .  A
O5           C19   1.268       .  A
O6           C11   1.270       .  A
O7           C10   1.273       .  A
O8           C20   1.284       .  A
O9         Fe706   2.068   1_455  S
O9           C22   1.268       .  A
C10          O15   1.278       .  A
C10         C142   1.471       .  S
C11         C481   1.444       .  S
O13        Fe706   2.123   1_455  S
O13          C16   1.285       .  A
O14        Fe705   2.065   1_455  S
O14          C16   1.269       .  A
C16         C104   1.486       .  S
O17        Fe705   2.090   1_455  S
O17          C22   1.274       .  A
O18          C20   1.285       .  A
C19          O21   1.240       .  A
C19         C121   1.444       .  S
C20          C88   1.475       .  S
C22          C42   1.475       .  S
Fe23         O39   2.090       .  S
Fe23         O29   2.057       .  S
Fe23         O36   2.065       .  S
Fe23         O28   2.059       .  S
Fe23         O34   1.927       .  S
Fe24         O27   2.109       .  S
Fe24         O31   2.068       .  S
Fe24         O35   2.123       .  S
Fe24         O40   2.105       .  S
Fe24         O34   1.936       .  S
Fe25         O43   1.976       .  S
Fe25         O30   2.074       .  S
Fe25         O37   2.103       .  S
Fe25         O26   2.044       .  S
Fe25         O34   1.992       .  S
O26          C33   1.252       .  A
O27          C41   1.268       .  A
O28          C33   1.270       .  A
O29          C32   1.273       .  A
O30          C42   1.284       .  A
O31          C44   1.268       .  A
C32          O37   1.278       .  A
C32         C164   1.471       .  S
C33         C151   1.444       .  S
O35          C38   1.285       .  A
O36          C38   1.269       .  A
C38         C126   1.486       .  S
O39          C44   1.274       .  A
O40          C42   1.285       .  A
C41          O43   1.240       .  A
C41         C847   1.444   1_455  S
C44          C64   1.475       .  S
Fe45         O51   2.057       .  S
Fe45         O50   2.059       .  S
Fe45        O765   2.090   1_455  S
Fe45        O762   2.065   1_455  S
Fe45         O56   1.927       .  S
Fe46         O53   2.068       .  S
Fe46         O57   2.123       .  S
Fe46        O753   2.109       .  S
Fe46        O766   2.105       .  S
Fe46        O760   1.936       .  S
Fe47         O65   1.976       .  S
Fe47         O52   2.074       .  S
Fe47         O59   2.103       .  S
Fe47         O48   2.044       .  S
Fe47         O56   1.992       .  S
O48          C55   1.252       .  A
O49        Fe750   2.109       .  S
O49          C63   1.268       .  A
O50          C55   1.270       .  A
O51          C54   1.273       .  A
O52          C64   1.284       .  A
O53          C66   1.268       .  A
C54          O59   1.278       .  A
C54         C274   1.471   1_554  S
C55         C525   1.444   1_545  S
O56        Fe750   1.936       .  S
O57          C60   1.285       .  A
O58        Fe749   2.065       .  S
O58          C60   1.269       .  A
C60         C148   1.486       .  S
O61        Fe749   2.090       .  S
O61          C66   1.274       .  A
O62        Fe750   2.105       .  S
O62          C64   1.285       .  A
C63          O65   1.240       .  A
C63         C165   1.444       .  S
C66          C86   1.475       .  S
Fe67         O83   2.090       .  S
Fe67         O73   2.057       .  S
Fe67         O80   2.065       .  S
Fe67         O72   2.059       .  S
Fe67         O78   1.927       .  S
Fe68         O71   2.109       .  S
Fe68         O75   2.068       .  S
Fe68         O79   2.123       .  S
Fe68        O260   2.105       .  S
Fe68         O78   1.936       .  S
Fe69         O87   1.976       .  S
Fe69         O74   2.074       .  S
Fe69         O81   2.103       .  S
Fe69         O70   2.044       .  S
Fe69         O78   1.992       .  S
O70          C77   1.252       .  A
O71          C85   1.268       .  A
O72          C77   1.270       .  A
O73          C76   1.273       .  A
O74         C262   1.284       .  A
O75          C88   1.268       .  A
C76          O81   1.278       .  A
C76         C120   1.471       .  S
C77         C107   1.444       .  S
O79          C82   1.285       .  A
O80          C82   1.269       .  A
C82         C346   1.486       .  S
O83          C88   1.274       .  A
O84        Fe244   2.105   1_554  S
O84          C86   1.285       .  A
C85          O87   1.240       .  A
C85         C803   1.444       .  S
C86         O250   1.284       .  A
Fe89         O95   2.057       .  S
Fe89         O94   2.059       .  S
Fe89        O457   2.090   1_545  S
Fe89        O454   2.065   1_545  S
Fe89        O100   1.927       .  S
Fe90         O93   2.109       .  S
Fe90        O106   2.105       .  S
Fe90        O449   2.068   1_545  S
Fe90        O453   2.123   1_545  S
Fe90        O100   1.936       .  S
Fe91        O109   1.976       .  S
Fe91         O96   2.074       .  S
Fe91        O103   2.103       .  S
Fe91         O92   2.044       .  S
Fe91        O100   1.992       .  S
O92          C99   1.252       .  A
O93         C107   1.268       .  A
O94          C99   1.270       .  A
O95          C98   1.273       .  A
O96         C108   1.284       .  A
O97        Fe442   2.068       .  S
O97         C110   1.268       .  A
C98         O103   1.278       .  A
C98         C230   1.471       .  S
C99         C789   1.444   1_455  S
O101       Fe442   2.123       .  S
O101        C104   1.285       .  A
O102       Fe441   2.065       .  S
O102        C104   1.269       .  A
O105       Fe441   2.090       .  S
O105        C110   1.274       .  A
O106        C108   1.285       .  A
C107        O109   1.240       .  A
C108        C132   1.475       .  S
C110        C174   1.475       .  S
Fe111       O127   2.090       .  S
Fe111       O117   2.057       .  S
Fe111       O124   2.065       .  S
Fe111       O116   2.059       .  S
Fe111       O122   1.927       .  S
Fe112       O115   2.109       .  S
Fe112       O119   2.068       .  S
Fe112       O123   2.123       .  S
Fe112       O128   2.105       .  S
Fe112       O122   1.936       .  S
Fe113       O131   1.976       .  S
Fe113       O118   2.074       .  S
Fe113       O125   2.103       .  S
Fe113       O114   2.044       .  S
Fe113       O122   1.992       .  S
O114        C121   1.252       .  A
O115        C129   1.268       .  A
O116        C121   1.270       .  A
O117        C120   1.273       .  A
O118        C130   1.284       .  A
O119        C132   1.268       .  A
C120        O125   1.278       .  A
O123        C126   1.285       .  A
O124        C126   1.269       .  A
O127        C132   1.274       .  A
O128        C130   1.285       .  A
C129        O131   1.240       .  A
C129        C363   1.444   1_545  S
C130        C154   1.475       .  S
Fe133       O139   2.057       .  S
Fe133       O138   2.059       .  S
Fe133       O501   2.090       .  S
Fe133       O498   2.065       .  S
Fe133       O144   1.927       .  S
Fe134       O137   2.109       .  S
Fe134       O150   2.105       .  S
Fe134       O493   2.068       .  S
Fe134       O497   2.123       .  S
Fe134       O144   1.936       .  S
Fe135       O153   1.976       .  S
Fe135       O140   2.074       .  S
Fe135       O147   2.103       .  S
Fe135       O136   2.044       .  S
Fe135       O144   1.992       .  S
O136        C143   1.252       .  A
O137        C151   1.268       .  A
O138        C143   1.270       .  A
O139        C142   1.273       .  A
O140        C152   1.284       .  A
O141       Fe486   2.068   1_545  S
O141        C154   1.268       .  A
C142        O147   1.278       .  A
C143        C745   1.444       .  S
O145       Fe486   2.123   1_545  S
O145        C148   1.285       .  A
O146       Fe485   2.065   1_545  S
O146        C148   1.269       .  A
O149       Fe485   2.090   1_545  S
O149        C154   1.274       .  A
O150        C152   1.285       .  A
C151        O153   1.240       .  A
C152        C176   1.475       .  S
Fe155       O171   2.090       .  S
Fe155       O161   2.057       .  S
Fe155       O168   2.065       .  S
Fe155       O160   2.059       .  S
Fe155       O166   1.927       .  S
Fe156       O159   2.109       .  S
Fe156       O163   2.068       .  S
Fe156       O167   2.123       .  S
Fe156       O348   2.105       .  S
Fe156       O166   1.936       .  S
Fe157       O175   1.976       .  S
Fe157       O162   2.074       .  S
Fe157       O169   2.103       .  S
Fe157       O158   2.044       .  S
Fe157       O166   1.992       .  S
O158        C165   1.252       .  A
O159        C173   1.268       .  A
O160        C165   1.270       .  A
O161        C164   1.273       .  A
O162        C350   1.284   1_554  A
O163        C176   1.268       .  A
C164        O169   1.278       .  A
O167        C170   1.285       .  A
O168        C170   1.269       .  A
C170        C258   1.486   1_554  S
O171        C176   1.274       .  A
O172       Fe332   2.105       .  S
O172        C174   1.285       .  A
C173        O175   1.240       .  A
C173        C407   1.444       .  S
C174        O338   1.284       .  A
Fe177       O897   2.090       .  S
Fe177       O183   2.057       .  S
Fe177       O894   2.065       .  S
Fe177       O182   2.059       .  S
Fe177       O188   1.927       .  S
Fe178       O181   2.109       .  S
Fe178       O889   2.068       .  S
Fe178       O893   2.123       .  S
Fe178       O194   2.105       .  S
Fe178       O188   1.936       .  S
Fe179       O197   1.976       .  S
Fe179       O184   2.074       .  S
Fe179       O191   2.103       .  S
Fe179       O180   2.044       .  S
Fe179       O188   1.992       .  S
O180        C187   1.252       .  A
O181        C195   1.268       .  A
O182        C187   1.270       .  A
O183        C186   1.273       .  A
O184        C196   1.284       .  A
O185       Fe882   2.068   1_455  S
O185        C198   1.268       .  A
C186        O191   1.278       .  A
C186        C318   1.471       .  S
C187        C657   1.444       .  S
O189       Fe882   2.123   1_455  S
O189        C192   1.285       .  A
O190       Fe881   2.065   1_455  S
O190        C192   1.269       .  A
C192        C280   1.486       .  S
O193       Fe881   2.090   1_455  S
O193        C198   1.274       .  A
O194        C196   1.285       .  A
C195        O197   1.240       .  A
C195        C297   1.444       .  S
C196        C264   1.475       .  S
C198        C218   1.475       .  S
Fe199       O215   2.090       .  S
Fe199       O205   2.057       .  S
Fe199       O212   2.065       .  S
Fe199       O204   2.059       .  S
Fe199       O210   1.927       .  S
Fe200       O203   2.109       .  S
Fe200       O207   2.068       .  S
Fe200       O211   2.123       .  S
Fe200       O216   2.105       .  S
Fe200       O210   1.936       .  S
Fe201       O219   1.976       .  S
Fe201       O206   2.074       .  S
Fe201       O213   2.103       .  S
Fe201       O202   2.044       .  S
Fe201       O210   1.992       .  S
O202        C209   1.252       .  A
O203        C217   1.268       .  A
O204        C209   1.270       .  A
O205        C208   1.273       .  A
O206        C218   1.284       .  A
O207        C220   1.268       .  A
C208        O213   1.278       .  A
C208        C340   1.471       .  S
C209        C327   1.444       .  S
O211        C214   1.285       .  A
O212        C214   1.269       .  A
C214        C302   1.486       .  S
O215        C220   1.274       .  A
O216        C218   1.285       .  A
C217        O219   1.240       .  A
C217       C1023   1.444   1_455  S
C220        C240   1.475       .  S
Fe221       O941   2.090   1_455  S
Fe221       O227   2.057       .  S
Fe221       O938   2.065   1_455  S
Fe221       O226   2.059       .  S
Fe221       O232   1.927       .  S
Fe222       O929   2.109       .  S
Fe222       O229   2.068       .  S
Fe222       O233   2.123       .  S
Fe222       O942   2.105       .  S
Fe222       O936   1.936       .  S
Fe223       O241   1.976       .  S
Fe223       O228   2.074       .  S
Fe223       O235   2.103       .  S
Fe223       O224   2.044       .  S
Fe223       O232   1.992       .  S
O224        C231   1.252       .  A
O225       Fe926   2.109       .  S
O225        C239   1.268       .  A
O226        C231   1.270       .  A
O227        C230   1.273       .  A
O228        C240   1.284       .  A
O229        C242   1.268       .  A
C230        O235   1.278       .  A
C231        C701   1.444   1_545  S
O232       Fe926   1.936       .  S
O233        C236   1.285       .  A
O234       Fe925   2.065       .  S
O234        C236   1.269       .  A
C236        C324   1.486       .  S
O237       Fe925   2.090       .  S
O237        C242   1.274       .  A
O238       Fe926   2.105       .  S
O238        C240   1.285       .  A
C239        O241   1.240       .  A
C239        C341   1.444       .  S
C242        C262   1.475       .  S
Fe243       O259   2.090       .  S
Fe243       O249   2.057       .  S
Fe243       O256   2.065       .  S
Fe243       O248   2.059       .  S
Fe243       O254   1.927       .  S
Fe244       O247   2.109       .  S
Fe244       O251   2.068       .  S
Fe244       O255   2.123       .  S
Fe244       O254   1.936       .  S
Fe245       O263   1.976       .  S
Fe245       O250   2.074   1_556  S
Fe245       O257   2.103       .  S
Fe245       O246   2.044       .  S
Fe245       O254   1.992       .  S
O246        C253   1.252       .  A
O247        C261   1.268       .  A
O248        C253   1.270       .  A
O249        C252   1.273       .  A
O251        C264   1.268       .  A
C252        O257   1.278       .  A
C252        C296   1.471       .  S
C253        C283   1.444       .  S
O255        C258   1.285       .  A
O256        C258   1.269       .  A
O259        C264   1.274       .  A
O260        C262   1.285       .  A
C261        O263   1.240       .  A
C261        C979   1.444       .  S
Fe265       O633   2.090   1_545  S
Fe265       O271   2.057       .  S
Fe265       O630   2.065   1_545  S
Fe265       O270   2.059       .  S
Fe265       O276   1.927       .  S
Fe266       O269   2.109       .  S
Fe266       O625   2.068   1_545  S
Fe266       O629   2.123   1_545  S
Fe266       O282   2.105       .  S
Fe266       O276   1.936       .  S
Fe267       O285   1.976       .  S
Fe267       O272   2.074       .  S
Fe267       O279   2.103       .  S
Fe267       O268   2.044       .  S
Fe267       O276   1.992       .  S
O268        C275   1.252       .  A
O269        C283   1.268       .  A
O270        C275   1.270       .  A
O271        C274   1.273       .  A
O272        C284   1.284       .  A
O273       Fe618   2.068       .  S
O273        C286   1.268       .  A
C274        O279   1.278       .  A
C275        C965   1.444   1_455  S
O277       Fe618   2.123       .  S
O277        C280   1.285       .  A
O278       Fe617   2.065       .  S
O278        C280   1.269       .  A
O281       Fe617   2.090       .  S
O281        C286   1.274       .  A
O282        C284   1.285       .  A
C283        O285   1.240       .  A
C284        C308   1.475       .  S
C286        C350   1.475       .  S
Fe287       O303   2.090       .  S
Fe287       O293   2.057       .  S
Fe287       O300   2.065       .  S
Fe287       O292   2.059       .  S
Fe287       O298   1.927       .  S
Fe288       O291   2.109       .  S
Fe288       O295   2.068       .  S
Fe288       O299   2.123       .  S
Fe288       O304   2.105       .  S
Fe288       O298   1.936       .  S
Fe289       O307   1.976       .  S
Fe289       O294   2.074       .  S
Fe289       O301   2.103       .  S
Fe289       O290   2.044       .  S
Fe289       O298   1.992       .  S
O290        C297   1.252       .  A
O291        C305   1.268       .  A
O292        C297   1.270       .  A
O293        C296   1.273       .  A
O294        C306   1.284       .  A
O295        C308   1.268       .  A
C296        O301   1.278       .  A
O299        C302   1.285       .  A
O300        C302   1.269       .  A
O303        C308   1.274       .  A
O304        C306   1.285       .  A
C305        O307   1.240       .  A
C305        C539   1.444   1_545  S
C306        C330   1.475       .  S
Fe309       O677   2.090       .  S
Fe309       O315   2.057       .  S
Fe309       O674   2.065       .  S
Fe309       O314   2.059       .  S
Fe309       O320   1.927       .  S
Fe310       O313   2.109       .  S
Fe310       O669   2.068       .  S
Fe310       O673   2.123       .  S
Fe310       O326   2.105       .  S
Fe310       O320   1.936       .  S
Fe311       O329   1.976       .  S
Fe311       O316   2.074       .  S
Fe311       O323   2.103       .  S
Fe311       O312   2.044       .  S
Fe311       O320   1.992       .  S
O312        C319   1.252       .  A
O313        C327   1.268       .  A
O314        C319   1.270       .  A
O315        C318   1.273       .  A
O316        C328   1.284       .  A
O317       Fe662   2.068   1_545  S
O317        C330   1.268       .  A
C318        O323   1.278       .  A
C319        C921   1.444       .  S
O321       Fe662   2.123   1_545  S
O321        C324   1.285       .  A
O322       Fe661   2.065   1_545  S
O322        C324   1.269       .  A
O325       Fe661   2.090   1_545  S
O325        C330   1.274       .  A
O326        C328   1.285       .  A
C327        O329   1.240       .  A
C328        C352   1.475       .  S
Fe331       O347   2.090       .  S
Fe331       O337   2.057       .  S
Fe331       O344   2.065       .  S
Fe331       O336   2.059       .  S
Fe331       O342   1.927       .  S
Fe332       O335   2.109       .  S
Fe332       O339   2.068       .  S
Fe332       O343   2.123       .  S
Fe332       O342   1.936       .  S
Fe333       O351   1.976       .  S
Fe333       O338   2.074       .  S
Fe333       O345   2.103       .  S
Fe333       O334   2.044       .  S
Fe333       O342   1.992       .  S
O334        C341   1.252       .  A
O335        C349   1.268       .  A
O336        C341   1.270       .  A
O337        C340   1.273       .  A
O339        C352   1.268       .  A
C340        O345   1.278       .  A
O343        C346   1.285       .  A
O344        C346   1.269       .  A
O347        C352   1.274       .  A
O348        C350   1.285   1_554  A
C349        O351   1.240       .  A
C349        C583   1.444       .  S
Fe353      O1073   2.090       .  S
Fe353       O359   2.057       .  S
Fe353      O1070   2.065       .  S
Fe353       O358   2.059       .  S
Fe353       O364   1.927       .  S
Fe354       O357   2.109       .  S
Fe354      O1065   2.068       .  S
Fe354      O1069   2.123       .  S
Fe354       O370   2.105       .  S
Fe354       O364   1.936       .  S
Fe355       O373   1.976       .  S
Fe355       O360   2.074       .  S
Fe355       O367   2.103       .  S
Fe355       O356   2.044       .  S
Fe355       O364   1.992       .  S
O356        C363   1.252       .  A
O357        C371   1.268       .  A
O358        C363   1.270       .  A
O359        C362   1.273       .  A
O360        C372   1.284       .  A
O361      Fe1058   2.068   1_455  S
O361        C374   1.268       .  A
C362        O367   1.278       .  A
C362        C494   1.471       .  S
O365      Fe1058   2.123   1_455  S
O365        C368   1.285       .  A
O366      Fe1057   2.065   1_455  S
O366        C368   1.269       .  A
C368        C456   1.486       .  S
O369      Fe1057   2.090   1_455  S
O369        C374   1.274       .  A
O370        C372   1.285       .  A
C371        O373   1.240       .  A
C371        C473   1.444       .  S
C372        C440   1.475       .  S
C374        C394   1.475       .  S
Fe375       O391   2.090       .  S
Fe375       O381   2.057       .  S
Fe375       O388   2.065       .  S
Fe375       O380   2.059       .  S
Fe375       O386   1.927       .  S
Fe376       O379   2.109       .  S
Fe376       O383   2.068       .  S
Fe376       O387   2.123       .  S
Fe376       O392   2.105       .  S
Fe376       O386   1.936       .  S
Fe377       O395   1.976       .  S
Fe377       O382   2.074       .  S
Fe377       O389   2.103       .  S
Fe377       O378   2.044       .  S
Fe377       O386   1.992       .  S
O378        C385   1.252       .  A
O379        C393   1.268       .  A
O380        C385   1.270       .  A
O381        C384   1.273       .  A
O382        C394   1.284       .  A
O383        C396   1.268       .  A
C384        O389   1.278       .  A
C384        C516   1.471       .  S
C385        C503   1.444       .  S
O387        C390   1.285       .  A
O388        C390   1.269       .  A
C390        C478   1.486       .  S
O391        C396   1.274       .  A
O392        C394   1.285       .  A
C393        O395   1.240       .  A
C393       C1199   1.444   1_455  S
C396        C416   1.475       .  S
Fe397      O1117   2.090   1_455  S
Fe397       O403   2.057       .  S
Fe397      O1114   2.065   1_455  S
Fe397       O402   2.059       .  S
Fe397       O408   1.927       .  S
Fe398      O1105   2.109       .  S
Fe398       O405   2.068       .  S
Fe398       O409   2.123       .  S
Fe398      O1118   2.105       .  S
Fe398      O1112   1.936       .  S
Fe399       O417   1.976       .  S
Fe399       O404   2.074       .  S
Fe399       O411   2.103       .  S
Fe399       O400   2.044       .  S
Fe399       O408   1.992       .  S
O400        C407   1.252       .  A
O401      Fe1102   2.109       .  S
O401        C415   1.268       .  A
O402        C407   1.270       .  A
O403        C406   1.273       .  A
O404        C416   1.284       .  A
O405        C418   1.268       .  A
C406        O411   1.278       .  A
C406        C626   1.471   1_554  S
O408      Fe1102   1.936       .  S
O409        C412   1.285       .  A
O410      Fe1101   2.065       .  S
O410        C412   1.269       .  A
C412        C500   1.486       .  S
O413      Fe1101   2.090       .  S
O413        C418   1.274       .  A
O414      Fe1102   2.105       .  S
O414        C416   1.285       .  A
C415        O417   1.240       .  A
C415        C517   1.444       .  S
C418        C438   1.475       .  S
Fe419       O435   2.090       .  S
Fe419       O425   2.057       .  S
Fe419       O432   2.065       .  S
Fe419       O424   2.059       .  S
Fe419       O430   1.927       .  S
Fe420       O423   2.109       .  S
Fe420       O427   2.068       .  S
Fe420       O431   2.123       .  S
Fe420       O612   2.105       .  S
Fe420       O430   1.936       .  S
Fe421       O439   1.976       .  S
Fe421       O426   2.074       .  S
Fe421       O433   2.103       .  S
Fe421       O422   2.044       .  S
Fe421       O430   1.992       .  S
O422        C429   1.252       .  A
O423        C437   1.268       .  A
O424        C429   1.270       .  A
O425        C428   1.273       .  A
O426        C614   1.284       .  A
O427        C440   1.268       .  A
C428        O433   1.278       .  A
C428        C472   1.471       .  S
C429        C459   1.444       .  S
O431        C434   1.285       .  A
O432        C434   1.269       .  A
C434        C698   1.486       .  S
O435        C440   1.274       .  A
O436       Fe596   2.105   1_554  S
O436        C438   1.285       .  A
C437        O439   1.240       .  A
C437       C1155   1.444       .  S
C438        O602   1.284       .  A
Fe441       O447   2.057       .  S
Fe441       O446   2.059       .  S
Fe441       O452   1.927       .  S
Fe442       O445   2.109       .  S
Fe442       O458   2.105       .  S
Fe442       O452   1.936       .  S
Fe443       O461   1.976       .  S
Fe443       O448   2.074       .  S
Fe443       O455   2.103       .  S
Fe443       O444   2.044       .  S
Fe443       O452   1.992       .  S
O444        C451   1.252       .  A
O445        C459   1.268       .  A
O446        C451   1.270       .  A
O447        C450   1.273       .  A
O448        C460   1.284       .  A
O449        C462   1.268       .  A
C450        O455   1.278       .  A
C450        C582   1.471       .  S
C451       C1141   1.444   1_455  S
O453        C456   1.285       .  A
O454        C456   1.269       .  A
O457        C462   1.274       .  A
O458        C460   1.285       .  A
C459        O461   1.240       .  A
C460        C484   1.475       .  S
C462        C526   1.475       .  S
Fe463       O479   2.090       .  S
Fe463       O469   2.057       .  S
Fe463       O476   2.065       .  S
Fe463       O468   2.059       .  S
Fe463       O474   1.927       .  S
Fe464       O467   2.109       .  S
Fe464       O471   2.068       .  S
Fe464       O475   2.123       .  S
Fe464       O480   2.105       .  S
Fe464       O474   1.936       .  S
Fe465       O483   1.976       .  S
Fe465       O470   2.074       .  S
Fe465       O477   2.103       .  S
Fe465       O466   2.044       .  S
Fe465       O474   1.992       .  S
O466        C473   1.252       .  A
O467        C481   1.268       .  A
O468        C473   1.270       .  A
O469        C472   1.273       .  A
O470        C482   1.284       .  A
O471        C484   1.268       .  A
C472        O477   1.278       .  A
O475        C478   1.285       .  A
O476        C478   1.269       .  A
O479        C484   1.274       .  A
O480        C482   1.285       .  A
C481        O483   1.240       .  A
C482        C506   1.475       .  S
Fe485       O491   2.057       .  S
Fe485       O490   2.059       .  S
Fe485       O496   1.927       .  S
Fe486       O489   2.109       .  S
Fe486       O502   2.105       .  S
Fe486       O496   1.936       .  S
Fe487       O505   1.976       .  S
Fe487       O492   2.074       .  S
Fe487       O499   2.103       .  S
Fe487       O488   2.044       .  S
Fe487       O496   1.992       .  S
O488        C495   1.252       .  A
O489        C503   1.268       .  A
O490        C495   1.270       .  A
O491        C494   1.273       .  A
O492        C504   1.284       .  A
O493        C506   1.268       .  A
C494        O499   1.278       .  A
C495       C1097   1.444       .  S
O497        C500   1.285       .  A
O498        C500   1.269       .  A
O501        C506   1.274       .  A
O502        C504   1.285       .  A
C503        O505   1.240       .  A
C504        C528   1.475       .  S
Fe507       O523   2.090       .  S
Fe507       O513   2.057       .  S
Fe507       O520   2.065       .  S
Fe507       O512   2.059       .  S
Fe507       O518   1.927       .  S
Fe508       O511   2.109       .  S
Fe508       O515   2.068       .  S
Fe508       O519   2.123       .  S
Fe508       O700   2.105       .  S
Fe508       O518   1.936       .  S
Fe509       O527   1.976       .  S
Fe509       O514   2.074       .  S
Fe509       O521   2.103       .  S
Fe509       O510   2.044       .  S
Fe509       O518   1.992       .  S
O510        C517   1.252       .  A
O511        C525   1.268       .  A
O512        C517   1.270       .  A
O513        C516   1.273       .  A
O514        C702   1.284   1_554  A
O515        C528   1.268       .  A
C516        O521   1.278       .  A
O519        C522   1.285       .  A
O520        C522   1.269       .  A
C522        C610   1.486   1_554  S
O523        C528   1.274       .  A
O524       Fe684   2.105       .  S
O524        C526   1.285       .  A
C525        O527   1.240       .  A
C526        O690   1.284       .  A
Fe529      O1249   2.090       .  S
Fe529       O535   2.057       .  S
Fe529      O1246   2.065       .  S
Fe529       O534   2.059       .  S
Fe529       O540   1.927       .  S
Fe530       O533   2.109       .  S
Fe530      O1241   2.068       .  S
Fe530      O1245   2.123       .  S
Fe530       O546   2.105       .  S
Fe530       O540   1.936       .  S
Fe531       O549   1.976       .  S
Fe531       O536   2.074       .  S
Fe531       O543   2.103       .  S
Fe531       O532   2.044       .  S
Fe531       O540   1.992       .  S
O532        C539   1.252       .  A
O533        C547   1.268       .  A
O534        C539   1.270       .  A
O535        C538   1.273       .  A
O536        C548   1.284       .  A
O537      Fe1234   2.068   1_455  S
O537        C550   1.268       .  A
C538        O543   1.278       .  A
C538        C670   1.471       .  S
O541      Fe1234   2.123   1_455  S
O541        C544   1.285       .  A
O542      Fe1233   2.065   1_455  S
O542        C544   1.269       .  A
C544        C632   1.486       .  S
O545      Fe1233   2.090   1_455  S
O545        C550   1.274       .  A
O546        C548   1.285       .  A
C547        O549   1.240       .  A
C547        C649   1.444       .  S
C548        C616   1.475       .  S
C550        C570   1.475       .  S
Fe551       O567   2.090       .  S
Fe551       O557   2.057       .  S
Fe551       O564   2.065       .  S
Fe551       O556   2.059       .  S
Fe551       O562   1.927       .  S
Fe552       O555   2.109       .  S
Fe552       O559   2.068       .  S
Fe552       O563   2.123       .  S
Fe552       O568   2.105       .  S
Fe552       O562   1.936       .  S
Fe553       O571   1.976       .  S
Fe553       O558   2.074       .  S
Fe553       O565   2.103       .  S
Fe553       O554   2.044       .  S
Fe553       O562   1.992       .  S
O554        C561   1.252       .  A
O555        C569   1.268       .  A
O556        C561   1.270       .  A
O557        C560   1.273       .  A
O558        C570   1.284       .  A
O559        C572   1.268       .  A
C560        O565   1.278       .  A
C560        C692   1.471       .  S
C561        C679   1.444       .  S
O563        C566   1.285       .  A
O564        C566   1.269       .  A
C566        C654   1.486       .  S
O567        C572   1.274       .  A
O568        C570   1.285       .  A
C569        O571   1.240       .  A
C569       C1375   1.444   1_455  S
C572        C592   1.475       .  S
Fe573      O1293   2.090   1_455  S
Fe573       O579   2.057       .  S
Fe573      O1290   2.065   1_455  S
Fe573       O578   2.059       .  S
Fe573       O584   1.927       .  S
Fe574      O1281   2.109       .  S
Fe574       O581   2.068       .  S
Fe574       O585   2.123       .  S
Fe574      O1294   2.105       .  S
Fe574      O1288   1.936       .  S
Fe575       O593   1.976       .  S
Fe575       O580   2.074       .  S
Fe575       O587   2.103       .  S
Fe575       O576   2.044       .  S
Fe575       O584   1.992       .  S
O576        C583   1.252       .  A
O577      Fe1278   2.109       .  S
O577        C591   1.268       .  A
O578        C583   1.270       .  A
O579        C582   1.273       .  A
O580        C592   1.284       .  A
O581        C594   1.268       .  A
C582        O587   1.278       .  A
O584      Fe1278   1.936       .  S
O585        C588   1.285       .  A
O586      Fe1277   2.065       .  S
O586        C588   1.269       .  A
C588        C676   1.486       .  S
O589      Fe1277   2.090       .  S
O589        C594   1.274       .  A
O590      Fe1278   2.105       .  S
O590        C592   1.285       .  A
C591        O593   1.240       .  A
C591        C693   1.444       .  S
C594        C614   1.475       .  S
Fe595       O611   2.090       .  S
Fe595       O601   2.057       .  S
Fe595       O608   2.065       .  S
Fe595       O600   2.059       .  S
Fe595       O606   1.927       .  S
Fe596       O599   2.109       .  S
Fe596       O603   2.068       .  S
Fe596       O607   2.123       .  S
Fe596       O606   1.936       .  S
Fe597       O615   1.976       .  S
Fe597       O602   2.074   1_556  S
Fe597       O609   2.103       .  S
Fe597       O598   2.044       .  S
Fe597       O606   1.992       .  S
O598        C605   1.252       .  A
O599        C613   1.268       .  A
O600        C605   1.270       .  A
O601        C604   1.273       .  A
O603        C616   1.268       .  A
C604        O609   1.278       .  A
C604        C648   1.471       .  S
C605        C635   1.444       .  S
O607        C610   1.285       .  A
O608        C610   1.269       .  A
O611        C616   1.274       .  A
O612        C614   1.285       .  A
C613        O615   1.240       .  A
C613       C1331   1.444       .  S
Fe617       O623   2.057       .  S
Fe617       O622   2.059       .  S
Fe617       O628   1.927       .  S
Fe618       O621   2.109       .  S
Fe618       O634   2.105       .  S
Fe618       O628   1.936       .  S
Fe619       O637   1.976       .  S
Fe619       O624   2.074       .  S
Fe619       O631   2.103       .  S
Fe619       O620   2.044       .  S
Fe619       O628   1.992       .  S
O620        C627   1.252       .  A
O621        C635   1.268       .  A
O622        C627   1.270       .  A
O623        C626   1.273       .  A
O624        C636   1.284       .  A
O625        C638   1.268       .  A
C626        O631   1.278       .  A
C627       C1317   1.444   1_455  S
O629        C632   1.285       .  A
O630        C632   1.269       .  A
O633        C638   1.274       .  A
O634        C636   1.285       .  A
C635        O637   1.240       .  A
C636        C660   1.475       .  S
C638        C702   1.475       .  S
Fe639       O655   2.090       .  S
Fe639       O645   2.057       .  S
Fe639       O652   2.065       .  S
Fe639       O644   2.059       .  S
Fe639       O650   1.927       .  S
Fe640       O643   2.109       .  S
Fe640       O647   2.068       .  S
Fe640       O651   2.123       .  S
Fe640       O656   2.105       .  S
Fe640       O650   1.936       .  S
Fe641       O659   1.976       .  S
Fe641       O646   2.074       .  S
Fe641       O653   2.103       .  S
Fe641       O642   2.044       .  S
Fe641       O650   1.992       .  S
O642        C649   1.252       .  A
O643        C657   1.268       .  A
O644        C649   1.270       .  A
O645        C648   1.273       .  A
O646        C658   1.284       .  A
O647        C660   1.268       .  A
C648        O653   1.278       .  A
O651        C654   1.285       .  A
O652        C654   1.269       .  A
O655        C660   1.274       .  A
O656        C658   1.285       .  A
C657        O659   1.240       .  A
C658        C682   1.475       .  S
Fe661       O667   2.057       .  S
Fe661       O666   2.059       .  S
Fe661       O672   1.927       .  S
Fe662       O665   2.109       .  S
Fe662       O678   2.105       .  S
Fe662       O672   1.936       .  S
Fe663       O681   1.976       .  S
Fe663       O668   2.074       .  S
Fe663       O675   2.103       .  S
Fe663       O664   2.044       .  S
Fe663       O672   1.992       .  S
O664        C671   1.252       .  A
O665        C679   1.268       .  A
O666        C671   1.270       .  A
O667        C670   1.273       .  A
O668        C680   1.284       .  A
O669        C682   1.268       .  A
C670        O675   1.278       .  A
C671       C1273   1.444       .  S
O673        C676   1.285       .  A
O674        C676   1.269       .  A
O677        C682   1.274       .  A
O678        C680   1.285       .  A
C679        O681   1.240       .  A
C680        C704   1.475       .  S
Fe683       O699   2.090       .  S
Fe683       O689   2.057       .  S
Fe683       O696   2.065       .  S
Fe683       O688   2.059       .  S
Fe683       O694   1.927       .  S
Fe684       O687   2.109       .  S
Fe684       O691   2.068       .  S
Fe684       O695   2.123       .  S
Fe684       O694   1.936       .  S
Fe685       O703   1.976       .  S
Fe685       O690   2.074       .  S
Fe685       O697   2.103       .  S
Fe685       O686   2.044       .  S
Fe685       O694   1.992       .  S
O686        C693   1.252       .  A
O687        C701   1.268       .  A
O688        C693   1.270       .  A
O689        C692   1.273       .  A
O691        C704   1.268       .  A
C692        O697   1.278       .  A
O695        C698   1.285       .  A
O696        C698   1.269       .  A
O699        C704   1.274       .  A
O700        C702   1.285   1_554  A
C701        O703   1.240       .  A
Fe705       O711   2.057       .  S
Fe705       O710   2.059       .  S
Fe705       O716   1.927       .  S
Fe706       O709   2.109       .  S
Fe706       O722   2.105       .  S
Fe706       O716   1.936       .  S
Fe707       O725   1.976       .  S
Fe707       O712   2.074       .  S
Fe707       O719   2.103       .  S
Fe707       O708   2.044       .  S
Fe707       O716   1.992       .  S
O708        C715   1.252       .  A
O709        C723   1.268       .  A
O710        C715   1.270       .  A
O711        C714   1.273       .  A
O712        C724   1.284       .  A
O713        C726   1.268       .  A
C714        O719   1.278       .  A
C714        C846   1.471       .  S
C715       C1185   1.444       .  S
O717        C720   1.285       .  A
O718        C720   1.269       .  A
C720        C808   1.486       .  S
O721        C726   1.274       .  A
O722        C724   1.285       .  A
C723        O725   1.240       .  A
C723        C825   1.444       .  S
C724        C792   1.475       .  S
C726        C746   1.475       .  S
Fe727       O743   2.090       .  S
Fe727       O733   2.057       .  S
Fe727       O740   2.065       .  S
Fe727       O732   2.059       .  S
Fe727       O738   1.927       .  S
Fe728       O731   2.109       .  S
Fe728       O735   2.068       .  S
Fe728       O739   2.123       .  S
Fe728       O744   2.105       .  S
Fe728       O738   1.936       .  S
Fe729       O747   1.976       .  S
Fe729       O734   2.074       .  S
Fe729       O741   2.103       .  S
Fe729       O730   2.044       .  S
Fe729       O738   1.992       .  S
O730        C737   1.252       .  A
O731        C745   1.268       .  A
O732        C737   1.270       .  A
O733        C736   1.273       .  A
O734        C746   1.284       .  A
O735        C748   1.268       .  A
C736        O741   1.278       .  A
C736        C868   1.471       .  S
C737        C855   1.444       .  S
O739        C742   1.285       .  A
O740        C742   1.269       .  A
C742        C830   1.486       .  S
O743        C748   1.274       .  A
O744        C746   1.285       .  A
C745        O747   1.240       .  A
C748        C768   1.475       .  S
Fe749       O755   2.057       .  S
Fe749       O754   2.059       .  S
Fe749       O760   1.927       .  S
Fe750       O757   2.068   1_455  S
Fe750       O761   2.123   1_455  S
Fe751       O769   1.976       .  S
Fe751       O756   2.074       .  S
Fe751       O763   2.103       .  S
Fe751       O752   2.044       .  S
Fe751       O760   1.992       .  S
O752        C759   1.252       .  A
O753        C767   1.268       .  A
O754        C759   1.270       .  A
O755        C758   1.273       .  A
O756        C768   1.284       .  A
O757        C770   1.268       .  A
C758        O763   1.278       .  A
C758        C978   1.471   1_554  S
C759       C1229   1.444   1_545  S
O761        C764   1.285       .  A
O762        C764   1.269       .  A
C764        C852   1.486       .  S
O765        C770   1.274       .  A
O766        C768   1.285       .  A
C767        O769   1.240       .  A
C767        C869   1.444       .  S
C770        C790   1.475       .  S
Fe771       O787   2.090       .  S
Fe771       O777   2.057       .  S
Fe771       O784   2.065       .  S
Fe771       O776   2.059       .  S
Fe771       O782   1.927       .  S
Fe772       O775   2.109       .  S
Fe772       O779   2.068       .  S
Fe772       O783   2.123       .  S
Fe772       O964   2.105       .  S
Fe772       O782   1.936       .  S
Fe773       O791   1.976       .  S
Fe773       O778   2.074       .  S
Fe773       O785   2.103       .  S
Fe773       O774   2.044       .  S
Fe773       O782   1.992       .  S
O774        C781   1.252       .  A
O775        C789   1.268       .  A
O776        C781   1.270       .  A
O777        C780   1.273       .  A
O778        C966   1.284       .  A
O779        C792   1.268       .  A
C780        O785   1.278       .  A
C780        C824   1.471       .  S
C781        C811   1.444       .  S
O783        C786   1.285       .  A
O784        C786   1.269       .  A
C786       C1050   1.486       .  S
O787        C792   1.274       .  A
O788       Fe948   2.105   1_554  S
O788        C790   1.285       .  A
C789        O791   1.240       .  A
C790        O954   1.284       .  A
Fe793      O1161   2.090   1_545  S
Fe793       O799   2.057       .  S
Fe793      O1158   2.065   1_545  S
Fe793       O798   2.059       .  S
Fe793       O804   1.927       .  S
Fe794       O797   2.109       .  S
Fe794      O1153   2.068   1_545  S
Fe794      O1157   2.123   1_545  S
Fe794       O810   2.105       .  S
Fe794       O804   1.936       .  S
Fe795       O813   1.976       .  S
Fe795       O800   2.074       .  S
Fe795       O807   2.103       .  S
Fe795       O796   2.044       .  S
Fe795       O804   1.992       .  S
O796        C803   1.252       .  A
O797        C811   1.268       .  A
O798        C803   1.270       .  A
O799        C802   1.273       .  A
O800        C812   1.284       .  A
O801      Fe1146   2.068       .  S
O801        C814   1.268       .  A
C802        O807   1.278       .  A
C802        C934   1.471       .  S
O805      Fe1146   2.123       .  S
O805        C808   1.285       .  A
O806      Fe1145   2.065       .  S
O806        C808   1.269       .  A
O809      Fe1145   2.090       .  S
O809        C814   1.274       .  A
O810        C812   1.285       .  A
C811        O813   1.240       .  A
C812        C836   1.475       .  S
C814        C878   1.475       .  S
Fe815       O831   2.090       .  S
Fe815       O821   2.057       .  S
Fe815       O828   2.065       .  S
Fe815       O820   2.059       .  S
Fe815       O826   1.927       .  S
Fe816       O819   2.109       .  S
Fe816       O823   2.068       .  S
Fe816       O827   2.123       .  S
Fe816       O832   2.105       .  S
Fe816       O826   1.936       .  S
Fe817       O835   1.976       .  S
Fe817       O822   2.074       .  S
Fe817       O829   2.103       .  S
Fe817       O818   2.044       .  S
Fe817       O826   1.992       .  S
O818        C825   1.252       .  A
O819        C833   1.268       .  A
O820        C825   1.270       .  A
O821        C824   1.273       .  A
O822        C834   1.284       .  A
O823        C836   1.268       .  A
C824        O829   1.278       .  A
O827        C830   1.285       .  A
O828        C830   1.269       .  A
O831        C836   1.274       .  A
O832        C834   1.285       .  A
C833        O835   1.240       .  A
C833       C1067   1.444   1_545  S
C834        C858   1.475       .  S
Fe837      O1205   2.090       .  S
Fe837       O843   2.057       .  S
Fe837      O1202   2.065       .  S
Fe837       O842   2.059       .  S
Fe837       O848   1.927       .  S
Fe838       O841   2.109       .  S
Fe838      O1197   2.068       .  S
Fe838      O1201   2.123       .  S
Fe838       O854   2.105       .  S
Fe838       O848   1.936       .  S
Fe839       O857   1.976       .  S
Fe839       O844   2.074       .  S
Fe839       O851   2.103       .  S
Fe839       O840   2.044       .  S
Fe839       O848   1.992       .  S
O840        C847   1.252       .  A
O841        C855   1.268       .  A
O842        C847   1.270       .  A
O843        C846   1.273       .  A
O844        C856   1.284       .  A
O845      Fe1190   2.068   1_545  S
O845        C858   1.268       .  A
C846        O851   1.278       .  A
O849      Fe1190   2.123   1_545  S
O849        C852   1.285       .  A
O850      Fe1189   2.065   1_545  S
O850        C852   1.269       .  A
O853      Fe1189   2.090   1_545  S
O853        C858   1.274       .  A
O854        C856   1.285       .  A
C855        O857   1.240       .  A
C856        C880   1.475       .  S
Fe859       O875   2.090       .  S
Fe859       O865   2.057       .  S
Fe859       O872   2.065       .  S
Fe859       O864   2.059       .  S
Fe859       O870   1.927       .  S
Fe860       O863   2.109       .  S
Fe860       O867   2.068       .  S
Fe860       O871   2.123       .  S
Fe860      O1052   2.105       .  S
Fe860       O870   1.936       .  S
Fe861       O879   1.976       .  S
Fe861       O866   2.074       .  S
Fe861       O873   2.103       .  S
Fe861       O862   2.044       .  S
Fe861       O870   1.992       .  S
O862        C869   1.252       .  A
O863        C877   1.268       .  A
O864        C869   1.270       .  A
O865        C868   1.273       .  A
O866       C1054   1.284   1_554  A
O867        C880   1.268       .  A
C868        O873   1.278       .  A
O871        C874   1.285       .  A
O872        C874   1.269       .  A
C874        C962   1.486   1_554  S
O875        C880   1.274       .  A
O876      Fe1036   2.105       .  S
O876        C878   1.285       .  A
C877        O879   1.240       .  A
C877       C1111   1.444       .  S
C878       O1042   1.284       .  A
Fe881       O887   2.057       .  S
Fe881       O886   2.059       .  S
Fe881       O892   1.927       .  S
Fe882       O885   2.109       .  S
Fe882       O898   2.105       .  S
Fe882       O892   1.936       .  S
Fe883       O901   1.976       .  S
Fe883       O888   2.074       .  S
Fe883       O895   2.103       .  S
Fe883       O884   2.044       .  S
Fe883       O892   1.992       .  S
O884        C891   1.252       .  A
O885        C899   1.268       .  A
O886        C891   1.270       .  A
O887        C890   1.273       .  A
O888        C900   1.284       .  A
O889        C902   1.268       .  A
C890        O895   1.278       .  A
C890       C1022   1.471       .  S
C891       C1361   1.444       .  S
O893        C896   1.285       .  A
O894        C896   1.269       .  A
C896        C984   1.486       .  S
O897        C902   1.274       .  A
O898        C900   1.285       .  A
C899        O901   1.240       .  A
C899       C1001   1.444       .  S
C900        C968   1.475       .  S
C902        C922   1.475       .  S
Fe903       O919   2.090       .  S
Fe903       O909   2.057       .  S
Fe903       O916   2.065       .  S
Fe903       O908   2.059       .  S
Fe903       O914   1.927       .  S
Fe904       O907   2.109       .  S
Fe904       O911   2.068       .  S
Fe904       O915   2.123       .  S
Fe904       O920   2.105       .  S
Fe904       O914   1.936       .  S
Fe905       O923   1.976       .  S
Fe905       O910   2.074       .  S
Fe905       O917   2.103       .  S
Fe905       O906   2.044       .  S
Fe905       O914   1.992       .  S
O906        C913   1.252       .  A
O907        C921   1.268       .  A
O908        C913   1.270       .  A
O909        C912   1.273       .  A
O910        C922   1.284       .  A
O911        C924   1.268       .  A
C912        O917   1.278       .  A
C912       C1044   1.471       .  S
C913       C1031   1.444       .  S
O915        C918   1.285       .  A
O916        C918   1.269       .  A
C918       C1006   1.486       .  S
O919        C924   1.274       .  A
O920        C922   1.285       .  A
C921        O923   1.240       .  A
C924        C944   1.475       .  S
Fe925       O931   2.057       .  S
Fe925       O930   2.059       .  S
Fe925       O936   1.927       .  S
Fe926       O933   2.068   1_455  S
Fe926       O937   2.123   1_455  S
Fe927       O945   1.976       .  S
Fe927       O932   2.074       .  S
Fe927       O939   2.103       .  S
Fe927       O928   2.044       .  S
Fe927       O936   1.992       .  S
O928        C935   1.252       .  A
O929        C943   1.268       .  A
O930        C935   1.270       .  A
O931        C934   1.273       .  A
O932        C944   1.284       .  A
O933        C946   1.268       .  A
C934        O939   1.278       .  A
C935       C1405   1.444   1_545  S
O937        C940   1.285       .  A
O938        C940   1.269       .  A
C940       C1028   1.486       .  S
O941        C946   1.274       .  A
O942        C944   1.285       .  A
C943        O945   1.240       .  A
C943       C1045   1.444       .  S
C946        C966   1.475       .  S
Fe947       O963   2.090       .  S
Fe947       O953   2.057       .  S
Fe947       O960   2.065       .  S
Fe947       O952   2.059       .  S
Fe947       O958   1.927       .  S
Fe948       O951   2.109       .  S
Fe948       O955   2.068       .  S
Fe948       O959   2.123       .  S
Fe948       O958   1.936       .  S
Fe949       O967   1.976       .  S
Fe949       O954   2.074   1_556  S
Fe949       O961   2.103       .  S
Fe949       O950   2.044       .  S
Fe949       O958   1.992       .  S
O950        C957   1.252       .  A
O951        C965   1.268       .  A
O952        C957   1.270       .  A
O953        C956   1.273       .  A
O955        C968   1.268       .  A
C956        O961   1.278       .  A
C956       C1000   1.471       .  S
C957        C987   1.444       .  S
O959        C962   1.285       .  A
O960        C962   1.269       .  A
O963        C968   1.274       .  A
O964        C966   1.285       .  A
C965        O967   1.240       .  A
Fe969      O1337   2.090   1_545  S
Fe969       O975   2.057       .  S
Fe969      O1334   2.065   1_545  S
Fe969       O974   2.059       .  S
Fe969       O980   1.927       .  S
Fe970       O973   2.109       .  S
Fe970      O1329   2.068   1_545  S
Fe970      O1333   2.123   1_545  S
Fe970       O986   2.105       .  S
Fe970       O980   1.936       .  S
Fe971       O989   1.976       .  S
Fe971       O976   2.074       .  S
Fe971       O983   2.103       .  S
Fe971       O972   2.044       .  S
Fe971       O980   1.992       .  S
O972        C979   1.252       .  A
O973        C987   1.268       .  A
O974        C979   1.270       .  A
O975        C978   1.273       .  A
O976        C988   1.284       .  A
O977      Fe1322   2.068       .  S
O977        C990   1.268       .  A
C978        O983   1.278       .  A
O981      Fe1322   2.123       .  S
O981        C984   1.285       .  A
O982      Fe1321   2.065       .  S
O982        C984   1.269       .  A
O985      Fe1321   2.090       .  S
O985        C990   1.274       .  A
O986        C988   1.285       .  A
C987        O989   1.240       .  A
C988       C1012   1.475       .  S
C990       C1054   1.475       .  S
Fe991      O1007   2.090       .  S
Fe991       O997   2.057       .  S
Fe991      O1004   2.065       .  S
Fe991       O996   2.059       .  S
Fe991      O1002   1.927       .  S
Fe992       O995   2.109       .  S
Fe992       O999   2.068       .  S
Fe992      O1003   2.123       .  S
Fe992      O1008   2.105       .  S
Fe992      O1002   1.936       .  S
Fe993      O1011   1.976       .  S
Fe993       O998   2.074       .  S
Fe993      O1005   2.103       .  S
Fe993       O994   2.044       .  S
Fe993      O1002   1.992       .  S
O994       C1001   1.252       .  A
O995       C1009   1.268       .  A
O996       C1001   1.270       .  A
O997       C1000   1.273       .  A
O998       C1010   1.284       .  A
O999       C1012   1.268       .  A
C1000      O1005   1.278       .  A
O1003      C1006   1.285       .  A
O1004      C1006   1.269       .  A
O1007      C1012   1.274       .  A
O1008      C1010   1.285       .  A
C1009      O1011   1.240       .  A
C1009      C1243   1.444   1_545  S
C1010      C1034   1.475       .  S
Fe1013     O1381   2.090       .  S
Fe1013     O1019   2.057       .  S
Fe1013     O1378   2.065       .  S
Fe1013     O1018   2.059       .  S
Fe1013     O1024   1.927       .  S
Fe1014     O1017   2.109       .  S
Fe1014     O1373   2.068       .  S
Fe1014     O1377   2.123       .  S
Fe1014     O1030   2.105       .  S
Fe1014     O1024   1.936       .  S
Fe1015     O1033   1.976       .  S
Fe1015     O1020   2.074       .  S
Fe1015     O1027   2.103       .  S
Fe1015     O1016   2.044       .  S
Fe1015     O1024   1.992       .  S
O1016      C1023   1.252       .  A
O1017      C1031   1.268       .  A
O1018      C1023   1.270       .  A
O1019      C1022   1.273       .  A
O1020      C1032   1.284       .  A
O1021     Fe1366   2.068   1_545  S
O1021      C1034   1.268       .  A
C1022      O1027   1.278       .  A
O1025     Fe1366   2.123   1_545  S
O1025      C1028   1.285       .  A
O1026     Fe1365   2.065   1_545  S
O1026      C1028   1.269       .  A
O1029     Fe1365   2.090   1_545  S
O1029      C1034   1.274       .  A
O1030      C1032   1.285       .  A
C1031      O1033   1.240       .  A
C1032      C1056   1.475       .  S
Fe1035     O1051   2.090       .  S
Fe1035     O1041   2.057       .  S
Fe1035     O1048   2.065       .  S
Fe1035     O1040   2.059       .  S
Fe1035     O1046   1.927       .  S
Fe1036     O1039   2.109       .  S
Fe1036     O1043   2.068       .  S
Fe1036     O1047   2.123       .  S
Fe1036     O1046   1.936       .  S
Fe1037     O1055   1.976       .  S
Fe1037     O1042   2.074       .  S
Fe1037     O1049   2.103       .  S
Fe1037     O1038   2.044       .  S
Fe1037     O1046   1.992       .  S
O1038      C1045   1.252       .  A
O1039      C1053   1.268       .  A
O1040      C1045   1.270       .  A
O1041      C1044   1.273       .  A
O1043      C1056   1.268       .  A
C1044      O1049   1.278       .  A
O1047      C1050   1.285       .  A
O1048      C1050   1.269       .  A
O1051      C1056   1.274       .  A
O1052      C1054   1.285   1_554  A
C1053      O1055   1.240       .  A
C1053      C1287   1.444       .  S
Fe1057     O1063   2.057       .  S
Fe1057     O1062   2.059       .  S
Fe1057     O1068   1.927       .  S
Fe1058     O1061   2.109       .  S
Fe1058     O1074   2.105       .  S
Fe1058     O1068   1.936       .  S
Fe1059     O1077   1.976       .  S
Fe1059     O1064   2.074       .  S
Fe1059     O1071   2.103       .  S
Fe1059     O1060   2.044       .  S
Fe1059     O1068   1.992       .  S
O1060      C1067   1.252       .  A
O1061      C1075   1.268       .  A
O1062      C1067   1.270       .  A
O1063      C1066   1.273       .  A
O1064      C1076   1.284       .  A
O1065      C1078   1.268       .  A
C1066      O1071   1.278       .  A
C1066      C1198   1.471       .  S
O1069      C1072   1.285       .  A
O1070      C1072   1.269       .  A
C1072      C1160   1.486       .  S
O1073      C1078   1.274       .  A
O1074      C1076   1.285       .  A
C1075      O1077   1.240       .  A
C1075      C1177   1.444       .  S
C1076      C1144   1.475       .  S
C1078      C1098   1.475       .  S
Fe1079     O1095   2.090       .  S
Fe1079     O1085   2.057       .  S
Fe1079     O1092   2.065       .  S
Fe1079     O1084   2.059       .  S
Fe1079     O1090   1.927       .  S
Fe1080     O1083   2.109       .  S
Fe1080     O1087   2.068       .  S
Fe1080     O1091   2.123       .  S
Fe1080     O1096   2.105       .  S
Fe1080     O1090   1.936       .  S
Fe1081     O1099   1.976       .  S
Fe1081     O1086   2.074       .  S
Fe1081     O1093   2.103       .  S
Fe1081     O1082   2.044       .  S
Fe1081     O1090   1.992       .  S
O1082      C1089   1.252       .  A
O1083      C1097   1.268       .  A
O1084      C1089   1.270       .  A
O1085      C1088   1.273       .  A
O1086      C1098   1.284       .  A
O1087      C1100   1.268       .  A
C1088      O1093   1.278       .  A
C1088      C1220   1.471       .  S
C1089      C1207   1.444       .  S
O1091      C1094   1.285       .  A
O1092      C1094   1.269       .  A
C1094      C1182   1.486       .  S
O1095      C1100   1.274       .  A
O1096      C1098   1.285       .  A
C1097      O1099   1.240       .  A
C1100      C1120   1.475       .  S
Fe1101     O1107   2.057       .  S
Fe1101     O1106   2.059       .  S
Fe1101     O1112   1.927       .  S
Fe1102     O1109   2.068   1_455  S
Fe1102     O1113   2.123   1_455  S
Fe1103     O1121   1.976       .  S
Fe1103     O1108   2.074       .  S
Fe1103     O1115   2.103       .  S
Fe1103     O1104   2.044       .  S
Fe1103     O1112   1.992       .  S
O1104      C1111   1.252       .  A
O1105      C1119   1.268       .  A
O1106      C1111   1.270       .  A
O1107      C1110   1.273       .  A
O1108      C1120   1.284       .  A
O1109      C1122   1.268       .  A
C1110      O1115   1.278       .  A
C1110      C1330   1.471   1_554  S
O1113      C1116   1.285       .  A
O1114      C1116   1.269       .  A
C1116      C1204   1.486       .  S
O1117      C1122   1.274       .  A
O1118      C1120   1.285       .  A
C1119      O1121   1.240       .  A
C1119      C1221   1.444       .  S
C1122      C1142   1.475       .  S
Fe1123     O1139   2.090       .  S
Fe1123     O1129   2.057       .  S
Fe1123     O1136   2.065       .  S
Fe1123     O1128   2.059       .  S
Fe1123     O1134   1.927       .  S
Fe1124     O1127   2.109       .  S
Fe1124     O1131   2.068       .  S
Fe1124     O1135   2.123       .  S
Fe1124     O1316   2.105       .  S
Fe1124     O1134   1.936       .  S
Fe1125     O1143   1.976       .  S
Fe1125     O1130   2.074       .  S
Fe1125     O1137   2.103       .  S
Fe1125     O1126   2.044       .  S
Fe1125     O1134   1.992       .  S
O1126      C1133   1.252       .  A
O1127      C1141   1.268       .  A
O1128      C1133   1.270       .  A
O1129      C1132   1.273       .  A
O1130      C1318   1.284       .  A
O1131      C1144   1.268       .  A
C1132      O1137   1.278       .  A
C1132      C1176   1.471       .  S
C1133      C1163   1.444       .  S
O1135      C1138   1.285       .  A
O1136      C1138   1.269       .  A
C1138      C1402   1.486       .  S
O1139      C1144   1.274       .  A
O1140     Fe1300   2.105   1_554  S
O1140      C1142   1.285       .  A
C1141      O1143   1.240       .  A
C1142      O1306   1.284       .  A
Fe1145     O1151   2.057       .  S
Fe1145     O1150   2.059       .  S
Fe1145     O1156   1.927       .  S
Fe1146     O1149   2.109       .  S
Fe1146     O1162   2.105       .  S
Fe1146     O1156   1.936       .  S
Fe1147     O1165   1.976       .  S
Fe1147     O1152   2.074       .  S
Fe1147     O1159   2.103       .  S
Fe1147     O1148   2.044       .  S
Fe1147     O1156   1.992       .  S
O1148      C1155   1.252       .  A
O1149      C1163   1.268       .  A
O1150      C1155   1.270       .  A
O1151      C1154   1.273       .  A
O1152      C1164   1.284       .  A
O1153      C1166   1.268       .  A
C1154      O1159   1.278       .  A
C1154      C1286   1.471       .  S
O1157      C1160   1.285       .  A
O1158      C1160   1.269       .  A
O1161      C1166   1.274       .  A
O1162      C1164   1.285       .  A
C1163      O1165   1.240       .  A
C1164      C1188   1.475       .  S
C1166      C1230   1.475       .  S
Fe1167     O1183   2.090       .  S
Fe1167     O1173   2.057       .  S
Fe1167     O1180   2.065       .  S
Fe1167     O1172   2.059       .  S
Fe1167     O1178   1.927       .  S
Fe1168     O1171   2.109       .  S
Fe1168     O1175   2.068       .  S
Fe1168     O1179   2.123       .  S
Fe1168     O1184   2.105       .  S
Fe1168     O1178   1.936       .  S
Fe1169     O1187   1.976       .  S
Fe1169     O1174   2.074       .  S
Fe1169     O1181   2.103       .  S
Fe1169     O1170   2.044       .  S
Fe1169     O1178   1.992       .  S
O1170      C1177   1.252       .  A
O1171      C1185   1.268       .  A
O1172      C1177   1.270       .  A
O1173      C1176   1.273       .  A
O1174      C1186   1.284       .  A
O1175      C1188   1.268       .  A
C1176      O1181   1.278       .  A
O1179      C1182   1.285       .  A
O1180      C1182   1.269       .  A
O1183      C1188   1.274       .  A
O1184      C1186   1.285       .  A
C1185      O1187   1.240       .  A
C1186      C1210   1.475       .  S
Fe1189     O1195   2.057       .  S
Fe1189     O1194   2.059       .  S
Fe1189     O1200   1.927       .  S
Fe1190     O1193   2.109       .  S
Fe1190     O1206   2.105       .  S
Fe1190     O1200   1.936       .  S
Fe1191     O1209   1.976       .  S
Fe1191     O1196   2.074       .  S
Fe1191     O1203   2.103       .  S
Fe1191     O1192   2.044       .  S
Fe1191     O1200   1.992       .  S
O1192      C1199   1.252       .  A
O1193      C1207   1.268       .  A
O1194      C1199   1.270       .  A
O1195      C1198   1.273       .  A
O1196      C1208   1.284       .  A
O1197      C1210   1.268       .  A
C1198      O1203   1.278       .  A
O1201      C1204   1.285       .  A
O1202      C1204   1.269       .  A
O1205      C1210   1.274       .  A
O1206      C1208   1.285       .  A
C1207      O1209   1.240       .  A
C1208      C1232   1.475       .  S
Fe1211     O1227   2.090       .  S
Fe1211     O1217   2.057       .  S
Fe1211     O1224   2.065       .  S
Fe1211     O1216   2.059       .  S
Fe1211     O1222   1.927       .  S
Fe1212     O1215   2.109       .  S
Fe1212     O1219   2.068       .  S
Fe1212     O1223   2.123       .  S
Fe1212     O1404   2.105       .  S
Fe1212     O1222   1.936       .  S
Fe1213     O1231   1.976       .  S
Fe1213     O1218   2.074       .  S
Fe1213     O1225   2.103       .  S
Fe1213     O1214   2.044       .  S
Fe1213     O1222   1.992       .  S
O1214      C1221   1.252       .  A
O1215      C1229   1.268       .  A
O1216      C1221   1.270       .  A
O1217      C1220   1.273       .  A
O1218      C1406   1.284   1_554  A
O1219      C1232   1.268       .  A
C1220      O1225   1.278       .  A
O1223      C1226   1.285       .  A
O1224      C1226   1.269       .  A
C1226      C1314   1.486   1_554  S
O1227      C1232   1.274       .  A
O1228     Fe1388   2.105       .  S
O1228      C1230   1.285       .  A
C1229      O1231   1.240       .  A
C1230      O1394   1.284       .  A
Fe1233     O1239   2.057       .  S
Fe1233     O1238   2.059       .  S
Fe1233     O1244   1.927       .  S
Fe1234     O1237   2.109       .  S
Fe1234     O1250   2.105       .  S
Fe1234     O1244   1.936       .  S
Fe1235     O1253   1.976       .  S
Fe1235     O1240   2.074       .  S
Fe1235     O1247   2.103       .  S
Fe1235     O1236   2.044       .  S
Fe1235     O1244   1.992       .  S
O1236      C1243   1.252       .  A
O1237      C1251   1.268       .  A
O1238      C1243   1.270       .  A
O1239      C1242   1.273       .  A
O1240      C1252   1.284       .  A
O1241      C1254   1.268       .  A
C1242      O1247   1.278       .  A
C1242      C1374   1.471       .  S
O1245      C1248   1.285       .  A
O1246      C1248   1.269       .  A
C1248      C1336   1.486       .  S
O1249      C1254   1.274       .  A
O1250      C1252   1.285       .  A
C1251      O1253   1.240       .  A
C1251      C1353   1.444       .  S
C1252      C1320   1.475       .  S
C1254      C1274   1.475       .  S
Fe1255     O1271   2.090       .  S
Fe1255     O1261   2.057       .  S
Fe1255     O1268   2.065       .  S
Fe1255     O1260   2.059       .  S
Fe1255     O1266   1.927       .  S
Fe1256     O1259   2.109       .  S
Fe1256     O1263   2.068       .  S
Fe1256     O1267   2.123       .  S
Fe1256     O1272   2.105       .  S
Fe1256     O1266   1.936       .  S
Fe1257     O1275   1.976       .  S
Fe1257     O1262   2.074       .  S
Fe1257     O1269   2.103       .  S
Fe1257     O1258   2.044       .  S
Fe1257     O1266   1.992       .  S
O1258      C1265   1.252       .  A
O1259      C1273   1.268       .  A
O1260      C1265   1.270       .  A
O1261      C1264   1.273       .  A
O1262      C1274   1.284       .  A
O1263      C1276   1.268       .  A
C1264      O1269   1.278       .  A
C1264      C1396   1.471       .  S
C1265      C1383   1.444       .  S
O1267      C1270   1.285       .  A
O1268      C1270   1.269       .  A
C1270      C1358   1.486       .  S
O1271      C1276   1.274       .  A
O1272      C1274   1.285       .  A
C1273      O1275   1.240       .  A
C1276      C1296   1.475       .  S
Fe1277     O1283   2.057       .  S
Fe1277     O1282   2.059       .  S
Fe1277     O1288   1.927       .  S
Fe1278     O1285   2.068   1_455  S
Fe1278     O1289   2.123   1_455  S
Fe1279     O1297   1.976       .  S
Fe1279     O1284   2.074       .  S
Fe1279     O1291   2.103       .  S
Fe1279     O1280   2.044       .  S
Fe1279     O1288   1.992       .  S
O1280      C1287   1.252       .  A
O1281      C1295   1.268       .  A
O1282      C1287   1.270       .  A
O1283      C1286   1.273       .  A
O1284      C1296   1.284       .  A
O1285      C1298   1.268       .  A
C1286      O1291   1.278       .  A
O1289      C1292   1.285       .  A
O1290      C1292   1.269       .  A
C1292      C1380   1.486       .  S
O1293      C1298   1.274       .  A
O1294      C1296   1.285       .  A
C1295      O1297   1.240       .  A
C1295      C1397   1.444       .  S
C1298      C1318   1.475       .  S
Fe1299     O1315   2.090       .  S
Fe1299     O1305   2.057       .  S
Fe1299     O1312   2.065       .  S
Fe1299     O1304   2.059       .  S
Fe1299     O1310   1.927       .  S
Fe1300     O1303   2.109       .  S
Fe1300     O1307   2.068       .  S
Fe1300     O1311   2.123       .  S
Fe1300     O1310   1.936       .  S
Fe1301     O1319   1.976       .  S
Fe1301     O1306   2.074   1_556  S
Fe1301     O1313   2.103       .  S
Fe1301     O1302   2.044       .  S
Fe1301     O1310   1.992       .  S
O1302      C1309   1.252       .  A
O1303      C1317   1.268       .  A
O1304      C1309   1.270       .  A
O1305      C1308   1.273       .  A
O1307      C1320   1.268       .  A
C1308      O1313   1.278       .  A
C1308      C1352   1.471       .  S
C1309      C1339   1.444       .  S
O1311      C1314   1.285       .  A
O1312      C1314   1.269       .  A
O1315      C1320   1.274       .  A
O1316      C1318   1.285       .  A
C1317      O1319   1.240       .  A
Fe1321     O1327   2.057       .  S
Fe1321     O1326   2.059       .  S
Fe1321     O1332   1.927       .  S
Fe1322     O1325   2.109       .  S
Fe1322     O1338   2.105       .  S
Fe1322     O1332   1.936       .  S
Fe1323     O1341   1.976       .  S
Fe1323     O1328   2.074       .  S
Fe1323     O1335   2.103       .  S
Fe1323     O1324   2.044       .  S
Fe1323     O1332   1.992       .  S
O1324      C1331   1.252       .  A
O1325      C1339   1.268       .  A
O1326      C1331   1.270       .  A
O1327      C1330   1.273       .  A
O1328      C1340   1.284       .  A
O1329      C1342   1.268       .  A
C1330      O1335   1.278       .  A
O1333      C1336   1.285       .  A
O1334      C1336   1.269       .  A
O1337      C1342   1.274       .  A
O1338      C1340   1.285       .  A
C1339      O1341   1.240       .  A
C1340      C1364   1.475       .  S
C1342      C1406   1.475       .  S
Fe1343     O1359   2.090       .  S
Fe1343     O1349   2.057       .  S
Fe1343     O1356   2.065       .  S
Fe1343     O1348   2.059       .  S
Fe1343     O1354   1.927       .  S
Fe1344     O1347   2.109       .  S
Fe1344     O1351   2.068       .  S
Fe1344     O1355   2.123       .  S
Fe1344     O1360   2.105       .  S
Fe1344     O1354   1.936       .  S
Fe1345     O1363   1.976       .  S
Fe1345     O1350   2.074       .  S
Fe1345     O1357   2.103       .  S
Fe1345     O1346   2.044       .  S
Fe1345     O1354   1.992       .  S
O1346      C1353   1.252       .  A
O1347      C1361   1.268       .  A
O1348      C1353   1.270       .  A
O1349      C1352   1.273       .  A
O1350      C1362   1.284       .  A
O1351      C1364   1.268       .  A
C1352      O1357   1.278       .  A
O1355      C1358   1.285       .  A
O1356      C1358   1.269       .  A
O1359      C1364   1.274       .  A
O1360      C1362   1.285       .  A
C1361      O1363   1.240       .  A
C1362      C1386   1.475       .  S
Fe1365     O1371   2.057       .  S
Fe1365     O1370   2.059       .  S
Fe1365     O1376   1.927       .  S
Fe1366     O1369   2.109       .  S
Fe1366     O1382   2.105       .  S
Fe1366     O1376   1.936       .  S
Fe1367     O1385   1.976       .  S
Fe1367     O1372   2.074       .  S
Fe1367     O1379   2.103       .  S
Fe1367     O1368   2.044       .  S
Fe1367     O1376   1.992       .  S
O1368      C1375   1.252       .  A
O1369      C1383   1.268       .  A
O1370      C1375   1.270       .  A
O1371      C1374   1.273       .  A
O1372      C1384   1.284       .  A
O1373      C1386   1.268       .  A
C1374      O1379   1.278       .  A
O1377      C1380   1.285       .  A
O1378      C1380   1.269       .  A
O1381      C1386   1.274       .  A
O1382      C1384   1.285       .  A
C1383      O1385   1.240       .  A
C1384      C1408   1.475       .  S
Fe1387     O1403   2.090       .  S
Fe1387     O1393   2.057       .  S
Fe1387     O1400   2.065       .  S
Fe1387     O1392   2.059       .  S
Fe1387     O1398   1.927       .  S
Fe1388     O1391   2.109       .  S
Fe1388     O1395   2.068       .  S
Fe1388     O1399   2.123       .  S
Fe1388     O1398   1.936       .  S
Fe1389     O1407   1.976       .  S
Fe1389     O1394   2.074       .  S
Fe1389     O1401   2.103       .  S
Fe1389     O1390   2.044       .  S
Fe1389     O1398   1.992       .  S
O1390      C1397   1.252       .  A
O1391      C1405   1.268       .  A
O1392      C1397   1.270       .  A
O1393      C1396   1.273       .  A
O1395      C1408   1.268       .  A
C1396      O1401   1.278       .  A
O1399      C1402   1.285       .  A
O1400      C1402   1.269       .  A
O1403      C1408   1.274       .  A
O1404      C1406   1.285   1_554  A
C1405      O1407   1.240       .  A
