geometry optimzed in LAMMPS
_audit_creation_date              2020-11-30 
_audit_creation_method            'lammps2cif' 
_symmetry_space_group_name_H-M    'P1' 
_symmetry_Int_Tables_number       1 
_symmetry_cell_setting            triclinic 
loop_ 
_symmetry_equiv_pos_as_xyz 
  x,y,z 
_cell_length_a                    41.03832890140914 
_cell_length_b                    41.34691586890729 
_cell_length_c                    38.645171419468014 
_cell_angle_alpha                 87.46976607363347 
_cell_angle_beta                  87.60524853297925 
_cell_angle_gamma                 89.60525172950628 
loop_ 
_atom_site_label 
_atom_site_type_symbol 
_atom_site_fract_x 
_atom_site_fract_y 
_atom_site_fract_z 
_atom_site_charge 
O1          O  0.49563159  0.16432930  0.71443974    -0.79760
O2          O  0.47533898  0.31293315  0.73654968    -0.64440
O3          O  0.49691874  0.23044828  0.70297980    -1.11050
C4          C  0.06893358  0.22983513  0.78773933     1.07130
O5          O  0.02776083  0.32466016  0.72975315    -0.77650
O6          O  0.08079829  0.28360884  0.72777476    -0.65230
Ni7        Ni  0.46448132  0.19779863  0.70579274     1.34870
C8          C  0.08347100  0.26429027  0.70326481     0.85870
O9          O  0.44844612  0.27754890  0.68944851    -0.78190
O10         O  0.42905640  0.22720786  0.69536580    -0.88470
C11         C  0.49817486  0.33315031  0.73044749     0.85440
O12         O  0.45692371  0.20087847  0.75463755    -0.66670
O13         O  0.06421238  0.26010951  0.79136430    -0.85960
C14         C  0.44720333  0.22594071  0.76989227     0.86270
C15         C  0.42614622  0.25692775  0.68585309     1.07840
H16         H  0.00328761  0.25552597  0.77086958     0.39640
O17         O  0.01409357  0.26206496  0.74902671    -1.08620
O18         O  0.06119973  0.24408263  0.69744472    -0.65270
Ni19       Ni  0.02732478  0.22421630  0.72793255     1.26350
O20         O  0.45205112  0.25446347  0.75669256    -0.65500
O21         O  0.05830844  0.21388066  0.76288439    -0.77790
C22         C  0.01849913  0.16435581  0.69814583     0.85660
O23         O  0.03876570  0.18514419  0.70666791    -0.64960
Ni24       Ni  0.04576479  0.29211567  0.76052039     1.27450
Ni25       Ni  0.48334280  0.27101480  0.72056561     1.26060
H26         H  0.50488472  0.23358920  0.67918139     0.40200
O27         O  0.00390612  0.42261965  0.76757822    -0.79760
O28         O  0.02111801  0.05746155  0.72239790    -0.64440
O29         O  0.99159720  0.48576149  0.77764326    -1.11050
C30         C  0.40026521  0.48743064  0.71135353     1.07130
O31         O  0.47849703  0.07873926  0.74411375    -0.77650
O32         O  0.43816700  0.03935728  0.78134115    -0.65230
Ni33       Ni  0.02237266  0.45507526  0.79375201     1.34870
C34         C  0.42475139  0.52119525  0.79042398     0.85870
O35         O  0.04121677  0.03061390  0.78088252    -0.78190
O36         O  0.04153777  0.48728365  0.82055845    -0.88470
C37         C  0.50962208  0.07984815  0.74158046     0.85440
O38         O  0.05776892  0.46070887  0.75941342    -0.66670
O39         O  0.40425426  0.51767160  0.71551568    -0.85960
C40         C  0.05890809  0.47703391  0.73079707     0.86270
C41         C  0.04917747  0.51638712  0.81131881     1.07840
H42         H  0.47913648  0.50709722  0.70061470     0.39640
O43         O  0.47154484  0.51186910  0.72384696    -1.08620
O44         O  0.42712022  0.49193756  0.78146806    -0.65270
Ni45       Ni  0.45796236  0.47313922  0.74826067     1.26350
O46         O  0.03601350  0.49612560  0.72215934    -0.65500
O47         O  0.42240006  0.46631298  0.71808894    -0.77790
C48         C  0.47463344  0.41203898  0.76537401     0.85660
O49         O  0.45100775  0.43163291  0.77027043    -0.64960
Ni50       Ni  0.44469645  0.04859714  0.73337974     1.27450
Ni51       Ni  0.00747425  0.52133964  0.75123571     1.26060
H52         H  0.48204211  0.49154634  0.79972835     0.40200
O53         O  0.26792354  0.17286583  0.69136619    -0.79760
O54         O  0.27992117  0.31398230  0.62275493    -0.64440
O55         O  0.26551937  0.23842396  0.68001544    -1.11050
C56         C  0.18516957  0.22533027  0.59582267     1.07130
O57         O  0.22660560  0.32152179  0.63171889    -0.77650
O58         O  0.17445158  0.28080494  0.64086791    -0.65230
Ni59       Ni  0.29894198  0.20682591  0.68326492     1.34870
C60         C  0.17419787  0.26762243  0.67111678     0.85870
O61         O  0.31274077  0.28713119  0.67651605    -0.78190
O62         O  0.33421433  0.23739808  0.67822565    -0.88470
C63         C  0.25520905  0.33263198  0.62579194     0.85440
O64         O  0.30011381  0.20101479  0.63431675    -0.66670
O65         O  0.19356245  0.25296511  0.58271057    -0.85960
C66         C  0.30942164  0.22292848  0.61197312     0.86270
C67         C  0.33690729  0.26789679  0.68043129     1.07840
H68         H  0.25092897  0.24951924  0.60360413     0.39640
O69         O  0.24170242  0.25946174  0.62393338    -1.08620
O70         O  0.19904500  0.25243934  0.68222672    -0.65270
Ni71       Ni  0.22842977  0.22600520  0.65458444     1.26350
O72         O  0.30633482  0.25308253  0.61774636    -0.65500
O73         O  0.19309342  0.21408248  0.62589703    -0.77790
C74         C  0.23712983  0.17035609  0.69615033     0.85660
O75         O  0.21718645  0.19194168  0.68648908    -0.64960
Ni76       Ni  0.20987292  0.28756673  0.60696629     1.27450
Ni77       Ni  0.27618575  0.27478830  0.65015857     1.26060
H78         H  0.25881179  0.24531462  0.70280876     0.40200
O79         O  0.20529843  0.07549846  0.70529284    -0.79760
O80         O  0.20864030  0.43649725  0.64069522    -0.64440
O81         O  0.21775274  0.51144564  0.69202706    -1.11050
C82         C  0.29786526  0.53067184  0.59974938     1.07130
O83         O  0.26125550  0.42956868  0.64968885    -0.77650
O84         O  0.31103440  0.47198307  0.65797286    -0.65230
Ni85       Ni  0.17964594  0.03935972  0.69500262     1.34870
C86         C  0.31072978  0.49133770  0.68247990     0.85870
O87         O  0.17412915  0.45943407  0.69601056    -0.78190
O88         O  0.14807895  0.50611808  0.69024082    -0.88470
C89         C  0.23419501  0.41893612  0.64022108     0.85440
O90         O  0.18399128  0.04861412  0.64619457    -0.66670
O91         O  0.29846044  0.50007389  0.59598259    -0.85960
C92         C  0.17891498  0.52685635  0.62514925     0.86270
C93         C  0.14825744  0.47634101  0.69960533     1.07840
H94         H  0.23645495  0.49851472  0.61445410     0.39640
O95         O  0.24506259  0.49132135  0.63636317    -1.08620
O96         O  0.28661249  0.51015818  0.68876182    -0.65270
Ni97       Ni  0.25225891  0.52827365  0.66045141     1.26350
O98         O  0.18106340  0.49637339  0.63284259    -0.65500
O99         O  0.28381545  0.04641726  0.62555755    -0.77790
C100        C  0.23496491  0.08374589  0.70128375     0.85660
O101        O  0.25649909  0.06804250  0.68468147    -0.64960
Ni102      Ni  0.28026733  0.46471617  0.62326082     1.27450
Ni103      Ni  0.21034300  0.47455043  0.66587577     1.26060
H104        H  0.22579406  0.50518152  0.71446808     0.40200
O105        O  0.43140553  0.13591680  0.47399199    -0.79760
O106        O  0.29050385  0.13909083  0.45375136    -0.64440
O107        O  0.37034706  0.12040446  0.49417964    -1.11050
C108        C  0.37663071  0.02506064  0.43644279     1.07130
O109        O  0.27794464  0.08882614  0.44006405    -0.77650
O110        O  0.31255213  0.06150888  0.49453393    -0.65230
Ni111      Ni  0.39872020  0.15360842  0.50461187     1.34870
C112        C  0.33722120  0.05417629  0.51239593     0.85870
O113        O  0.31909680  0.16158882  0.50879555    -0.78190
O114        O  0.36578375  0.17132761  0.53560867    -0.88470
C115        C  0.27138965  0.11870683  0.44212125     0.85440
O116        O  0.38821343  0.18634871  0.47052104    -0.66670
O117        O  0.34693359  0.02656493  0.44683932    -0.85960
C118        C  0.36799197  0.18746137  0.44663287     0.86270
C119        C  0.33474905  0.17348824  0.53328330     1.07840
H120        H  0.34714311  0.10480506  0.41940707     0.39640
O121        O  0.34351222  0.09633916  0.44294057    -1.08620
O122        O  0.36644532  0.05681622  0.50007658    -0.65270
Ni123      Ni  0.38381748  0.08674614  0.46391741     1.26350
O124        O  0.34819620  0.16441187  0.44232911    -0.65500
O125        O  0.39457957  0.05034606  0.43482446    -0.77790
C126        C  0.44325075  0.10792608  0.48069223     0.85660
O127        O  0.42527465  0.08293706  0.48363903    -0.64960
Ni128      Ni  0.31444019  0.06047332  0.44495441     1.27450
Ni129      Ni  0.33085071  0.13043714  0.47430368     1.26060
H130        H  0.36476631  0.11076618  0.51682440     0.40200
O131        O  0.18887685  0.09629470  0.46903860    -0.79760
O132        O  0.04392359  0.06930727  0.52482309    -0.64440
O133        O  0.12157975  0.09324828  0.47410364    -1.11050
C134        C  0.12327249  0.16766930  0.56500819     1.07130
O135        O  0.03036333  0.12162124  0.52079286    -0.77650
O136        O  0.06843671  0.17694414  0.51517571    -0.65230
Ni137      Ni  0.15622279  0.06303574  0.46924375     1.34870
C138        C  0.08425298  0.17987934  0.48618718     0.85870
O139        O  0.07576911  0.04335631  0.47025053    -0.78190
O140        O  0.12759028  0.02642166  0.46574183    -0.88470
C141        C  0.02320865  0.09166384  0.51910371     0.85440
O142        O  0.15902180  0.05578999  0.51831906    -0.66670
O143        O  0.09501670  0.15786220  0.57541508    -0.85960
C144        C  0.13626480  0.04552000  0.53927818     0.86270
C145        C  0.09720744  0.02234461  0.46180805     1.07840
H146        H  0.10382534  0.10133505  0.55102040     0.39640
O147        O  0.09464099  0.11122319  0.53050837    -1.08620
O148        O  0.10317619  0.15756141  0.47560447    -0.65270
Ni149      Ni  0.12943267  0.12845050  0.50364572     1.26350
O150        O  0.10621455  0.04744216  0.53181785    -0.65500
O151        O  0.13667051  0.16158778  0.53547137    -0.77790
C152        C  0.18926373  0.12720603  0.46730468     0.85660
O153        O  0.16520391  0.14442911  0.47623757    -0.64960
Ni154      Ni  0.06283485  0.13992814  0.54778480     1.27450
Ni155      Ni  0.08408796  0.07797267  0.50044157     1.26060
H156        H  0.11535549  0.10132178  0.45146865     0.40200
O157        O  0.18456063  0.36200040  0.45403806    -0.79760
O158        O  0.03757651  0.37702507  0.40900932    -0.64440
O159        O  0.11886619  0.35870189  0.44970142    -1.11050
C160        C  0.11809157  0.28026602  0.36128137     1.07130
O161        O  0.02856654  0.32559250  0.42451799    -0.77650
O162        O  0.06803182  0.27126059  0.42673306    -0.65230
Ni163      Ni  0.14999946  0.39265554  0.44888060     1.34870
C164        C  0.08930387  0.26920487  0.44961660     0.85870
O165        O  0.07063177  0.40761154  0.45689505    -0.78190
O166        O  0.11963686  0.42851263  0.44589757    -0.88470
C167        C  0.01799374  0.35345850  0.41510325     0.85440
O168        O  0.15316201  0.39148141  0.39969821    -0.66670
O169        O  0.08728780  0.28486988  0.36037616    -0.85960
C170        C  0.12992051  0.39940514  0.38017291     0.86270
C171        C  0.08985532  0.43166579  0.45549054     1.07840
H172        H  0.09469188  0.34440053  0.37659632     0.39640
O173        O  0.08935572  0.33576606  0.39973672    -1.08620
O174        O  0.11068010  0.29120078  0.45235376    -0.65270
Ni175      Ni  0.12867967  0.32357631  0.41859145     1.26350
O176        O  0.09984697  0.39878525  0.39100162    -0.65500
O177        O  0.13611835  0.29089846  0.38474873    -0.77790
C178        C  0.19027118  0.33231527  0.44916247     0.85660
O179        O  0.17006046  0.31325171  0.43685216    -0.64960
Ni180      Ni  0.05775403  0.30467915  0.39274949     1.27450
Ni181      Ni  0.07920441  0.37090880  0.42843622     1.26060
H182        H  0.11439862  0.35043203  0.47320796     0.40200
O183        O  0.43709350  0.33686101  0.38062453    -0.79760
O184        O  0.29511862  0.31167381  0.40425954    -0.64440
O185        O  0.37401520  0.34361036  0.36371893    -1.11050
C186        C  0.36537942  0.43327760  0.43229892     1.07130
O187        O  0.27595733  0.35658240  0.42824923    -0.77650
O188        O  0.30476295  0.39775017  0.37786235    -0.65230
Ni189      Ni  0.40842526  0.31563951  0.35152129     1.34870
C190        C  0.32755553  0.40768570  0.35663229     0.85870
O191        O  0.33058421  0.29653285  0.34793640    -0.78190
O192        O  0.38075484  0.29402814  0.32156169    -0.88470
C193        C  0.27318109  0.32710879  0.42053614     0.85440
O194        O  0.40184752  0.28101330  0.38583163    -0.66670
O195        O  0.33534187  0.42805242  0.42832494    -0.85960
C196        C  0.37931434  0.27498480  0.40861950     0.86270
C197        C  0.35048778  0.28702372  0.32387891     1.07840
H198        H  0.34790588  0.34913513  0.44029884     0.39640
O199        O  0.34230433  0.35951484  0.41843726    -1.08620
O200        O  0.35787851  0.40576015  0.36328350    -0.65270
Ni201      Ni  0.38094986  0.37680002  0.39521088     1.26350
O202        O  0.35468642  0.29341990  0.41302275    -0.65500
O203        O  0.38695737  0.41182818  0.42605596    -0.77790
C204        C  0.44358390  0.36705995  0.37943903     0.85660
O205        O  0.42179728  0.38822684  0.37313832    -0.64960
Ni206      Ni  0.30813855  0.39017634  0.42640970     1.27450
Ni207      Ni  0.33527598  0.32700415  0.38406857     1.26060
H208        H  0.36826002  0.35375546  0.34180463     0.40200
O209        O  0.30588489  0.14720452  0.89400479    -0.79760
O210        O  0.44260744  0.13831987  0.93714548    -0.64440
O211        O  0.36820005  0.12997096  0.88637950    -1.11050
C212        C  0.35340026  0.03096663  0.95424820     1.07130
O213        O  0.45435727  0.08739532  0.92665163    -0.77650
O214        O  0.41472694  0.04621980  0.89906011    -0.65230
Ni215      Ni  0.34362679  0.16579519  0.87081145     1.34870
C216        C  0.39386976  0.05043671  0.87589536     0.85870
O217        O  0.42241005  0.16986446  0.88006413    -0.78190
O218        O  0.38114281  0.18412319  0.84574802    -0.88470
C219        C  0.46257041  0.11679995  0.92818249     0.85440
O220        O  0.35028452  0.19437164  0.90773774    -0.66670
O221        O  0.38305772  0.03494916  0.96163836    -0.85960
C222        C  0.36672509  0.19185028  0.93488721     0.86270
C223        C  0.41128602  0.18415154  0.85290826     1.07840
H224        H  0.38189830  0.10611224  0.96242335     0.39640
O225        O  0.38836424  0.09921390  0.93956372    -1.08620
O226        O  0.36855472  0.06746536  0.87952517    -0.65270
Ni227      Ni  0.35033852  0.09367883  0.91412774     1.26350
O228        O  0.38481818  0.16729965  0.94185795    -0.65500
O229        O  0.33630537  0.05331327  0.93909988    -0.77790
C230        C  0.29512820  0.11978034  0.88595222     0.85660
O231        O  0.31187967  0.09394555  0.88904875    -0.64960
Ni232      Ni  0.41740185  0.06301453  0.94443485     1.27450
Ni233      Ni  0.40501156  0.13584774  0.91155463     1.26060
H234        H  0.37667402  0.12175359  0.86477966     0.40200
O235        O  0.05257668  0.08253410  0.96577503    -0.79760
O236        O  0.18988451  0.07123867  0.88361887    -0.64440
O237        O  0.11737570  0.08706444  0.94525126    -1.11050
C238        C  0.09723739  0.16679745  0.85387356     1.07130
O239        O  0.19811202  0.12375089  0.88769810    -0.77650
O240        O  0.15904459  0.17597071  0.89775864    -0.65230
Ni241      Ni  0.08744114  0.05278379  0.95634349     1.34870
C242        C  0.14467723  0.17690439  0.92734838     0.85870
O243        O  0.16775223  0.03970190  0.94210484    -0.78190
O244        O  0.11851353  0.01806039  0.95083088    -0.88470
C245        C  0.20886298  0.09546250  0.88201349     0.85440
O246        O  0.07717729  0.05084821  0.90864495    -0.66670
O247        O  0.12632533  0.16168752  0.84225671    -0.85960
C248        C  0.09777968  0.04196281  0.88529429     0.86270
C249        C  0.14936322  0.01524302  0.94847730     1.07840
H250        H  0.12499739  0.10111561  0.86609162     0.39640
O251        O  0.13502697  0.11042707  0.88547120    -1.08620
O252        O  0.12590619  0.15417694  0.93931429    -0.65270
Ni253      Ni  0.10107767  0.12235287  0.91566396     1.26350
O254        O  0.12845177  0.04637006  0.88697058    -0.65500
O255        O  0.08544229  0.15532995  0.88311787    -0.77790
C256        C  0.04722944  0.11281679  0.96315099     0.85660
O257        O  0.06606500  0.13268928  0.94663068    -0.64960
Ni258      Ni  0.16233536  0.14253967  0.86489504     1.27450
Ni259      Ni  0.15259114  0.07617447  0.91392607     1.26060
H260        H  0.12574214  0.09510531  0.96622213     0.40200
O261        O  0.05220136  0.34800278  0.95921884    -0.79760
O262        O  0.19952696  0.37307781  0.99668608    -0.64440
O263        O  0.11956262  0.35138017  0.95699941    -1.11050
C264        C  0.13077288  0.26518082  0.04229035     1.07130
O265        O  0.21428657  0.32430785  0.97978434    -0.77650
O266        O  0.17897292  0.26641901  0.97808767    -0.65230
Ni267      Ni  0.08433477  0.38158166  0.95619174     1.34870
C268        C  0.15705245  0.26460693  0.95605900     0.85870
O269        O  0.16377761  0.40457036  0.95015404    -0.78190
O270        O  0.11151414  0.41944426  0.95059239    -0.88470
C271        C  0.22152194  0.35311791  0.98718595     0.85440
O272        O  0.08273774  0.38445447  0.00525076    -0.66670
O273        O  0.16072719  0.27290254  0.04399975    -0.85960
C274        C  0.10581846  0.39162417  0.02447069     0.86270
C275        C  0.14164579  0.42571918  0.94550332     1.07840
H276        H  0.14613650  0.33323625  0.02950605     0.39640
O277        O  0.15219727  0.32706216  0.00628531    -1.08620
O278        O  0.13524526  0.28634669  0.95250274    -0.65270
Ni279      Ni  0.11436654  0.31279419  0.98716781     1.26350
O280        O  0.13607815  0.38895456  0.01514265    -0.65500
O281        O  0.11142922  0.27625536  0.01940483    -0.77790
C282        C  0.05093246  0.31720637  0.96132183     0.85660
O283        O  0.07493641  0.29939704  0.96872012    -0.64960
Ni284      Ni  0.18734777  0.29822402  0.01167047     1.27450
Ni285      Ni  0.15835704  0.36518299  0.97801629     1.26060
H286        H  0.12500345  0.34548158  0.93353054     0.40200
O287        O  0.31050421  0.33487317  0.01068789    -0.79760
O288        O  0.45100957  0.31439648  0.97113532    -0.64440
O289        O  0.37469862  0.33809105  0.02176953    -1.11050
C290        C  0.38060130  0.44098715  0.97085897     1.07130
O291        O  0.46511889  0.36233090  0.94603965    -0.77650
O292        O  0.44386470  0.38733968  0.00887618    -0.65230
Ni293      Ni  0.34165194  0.30821579  0.03417159     1.34870
C294        C  0.42356478  0.39460101  0.03332325     0.85870
O295        O  0.42048018  0.28955923  0.02932670    -0.78190
O296        O  0.37204614  0.28125193  0.05857957    -0.88470
C297        C  0.46946291  0.33217002  0.95133571     0.85440
O298        O  0.34590533  0.27939720  0.99658106    -0.66670
O299        O  0.41035584  0.43287239  0.97238570    -0.85960
C300        C  0.36675697  0.27740566  0.97156073     0.86270
C301        C  0.40249307  0.27552763  0.05355705     1.07840
H302        H  0.39438712  0.35788667  0.94487824     0.39640
O303        O  0.40177615  0.36398643  0.96706956    -1.08620
O304        O  0.39275966  0.39809121  0.02903611    -0.65270
Ni305      Ni  0.36563601  0.37740659  0.99586343     1.26350
O306        O  0.39034958  0.29716961  0.96649197    -0.65500
O307        O  0.35847685  0.41937537  0.97134110    -0.77790
C308        C  0.30416619  0.36469120  0.01589217     0.85660
O309        O  0.32644820  0.38450953  0.02270444    -0.64960
Ni310      Ni  0.43554524  0.39509957  0.96097041     1.27450
Ni311      Ni  0.41207434  0.32565124  0.99665956     1.26060
H312        H  0.38206692  0.34371277  0.04411519     0.40200
O313        O  0.25210979  0.29193614  0.18770718    -0.79760
O314        O  0.27427413  0.15096214  0.25723214    -0.64440
O315        O  0.25109901  0.22706989  0.20462623    -1.11050
C316        C  0.17934451  0.23450448  0.30531494     1.07130
O317        O  0.22162021  0.13903027  0.25536520    -0.77650
O318        O  0.16674071  0.17821817  0.25283019    -0.65230
Ni319      Ni  0.28391087  0.25847956  0.19264630     1.34870
C320        C  0.16340423  0.19614333  0.22561784     0.85870
O321        O  0.30107006  0.17940524  0.19934408    -0.78190
O322        O  0.32057889  0.22935096  0.19352130    -0.88470
C323        C  0.25160347  0.13029936  0.25565743     0.85440
O324        O  0.28771554  0.26592176  0.24051515    -0.66670
O325        O  0.18507409  0.20455828  0.31197971    -0.85960
C326        C  0.29607681  0.24475201  0.26345092     0.86270
C327        C  0.32408683  0.19906963  0.19112497     1.07840
H328        H  0.24253771  0.21029541  0.28373443     0.39640
O329        O  0.23241456  0.20249715  0.26363051    -1.08620
O330        O  0.18457647  0.21717234  0.21513648    -0.65270
Ni331      Ni  0.21781610  0.23918966  0.23926246     1.26350
O332        O  0.29517170  0.21420053  0.25912268    -0.65500
O333        O  0.18690164  0.24966060  0.27640484    -0.77790
C334        C  0.22247249  0.29719520  0.19628318     0.85660
O335        O  0.20470577  0.27752253  0.21458022    -0.64960
Ni336      Ni  0.20282276  0.17201817  0.28312271     1.27450
Ni337      Ni  0.26571558  0.19014335  0.23134881     1.26060
H338        H  0.24128197  0.22020412  0.18389355     0.40200
O339        O  0.20567402  0.03391236  0.23060133    -0.79760
O340        O  0.19160799  0.39990852  0.23019769    -0.64440
O341        O  0.21465243  0.97478896  0.25991867    -1.11050
C342        C  0.31606254  0.96976724  0.20380518     1.07130
O343        O  0.24105411  0.38197545  0.21344062    -0.77650
O344        O  0.27130015  0.41493841  0.26399447    -0.65230
Ni345      Ni  0.18191044  0.00633724  0.26375431     1.34870
C346        C  0.27807945  0.43911549  0.28167566     0.85870
O347        O  0.16698319  0.43549378  0.28048761    -0.78190
O348        O  0.15821809  0.97887837  0.29751569    -0.88470
C349        C  0.21036216  0.37836507  0.21848670     0.85440
O350        O  0.15261154  0.99394628  0.22953206    -0.66670
O351        O  0.31026326  0.44434594  0.21399894    -0.85960
C352        C  0.15162581  0.96939341  0.21110216     0.86270
C353        C  0.15386338  0.45465347  0.30238647     1.07840
H354        H  0.23305903  0.45156145  0.19039490     0.39640
O355        O  0.23996541  0.44787643  0.21384878    -1.08620
O356        O  0.27696479  0.96379957  0.26823339    -0.65270
Ni357      Ni  0.25208108  0.98255196  0.22987251     1.26350
O358        O  0.17340093  0.45786593  0.21144335    -0.65500
O359        O  0.29159746  0.98869963  0.20069557    -0.77790
C360        C  0.23383205  0.04448391  0.23686801     0.85660
O361        O  0.25680270  0.02523783  0.24554453    -0.64960
Ni362      Ni  0.27318918  0.41546361  0.21479881     1.27450
Ni363      Ni  0.20243905  0.44080048  0.24610011     1.26060
H364        H  0.22168246  0.97191116  0.28339034     0.40200
O365        O  0.48051402  0.28684330  0.21041764    -0.79760
O366        O  0.47395618  0.15024435  0.14060170    -0.64440
O367        O  0.48590820  0.22234510  0.19705108    -1.11050
C368        C  0.07652413  0.23631735  0.11665247     1.07130
O369        O  0.02356579  0.13747923  0.15088664    -0.77650
O370        O  0.07562008  0.17504640  0.16889610    -0.65230
Ni371      Ni  0.45127177  0.25324560  0.19971336     1.34870
C372        C  0.07477818  0.19258843  0.19505590     0.85870
O373        O  0.43785818  0.17430357  0.19305589    -0.78190
O374        O  0.41630472  0.22362119  0.19131372    -0.88470
C375        C  0.49747735  0.13008387  0.14178710     0.85440
O376        O  0.45763478  0.26363738  0.15144822    -0.66670
O377        O  0.07269997  0.20703931  0.10844574    -0.85960
C378        C  0.45279943  0.24408766  0.12776103     0.86270
C379        C  0.41332502  0.19306340  0.19507076     1.07840
H380        H  0.00901501  0.21153020  0.11950144     0.39640
O381        O  0.01485936  0.20187474  0.14160523    -1.08620
O382        O  0.05157089  0.21252564  0.20116100    -0.65270
Ni383      Ni  0.02315458  0.23617674  0.16973317     1.26350
O384        O  0.45325548  0.21321612  0.13340916    -0.65500
O385        O  0.06058562  0.24985816  0.14129737    -0.77790
C386        C  0.51092486  0.29247758  0.20909034     0.85660
O387        O  0.02963421  0.27227431  0.19720511    -0.64960
Ni388      Ni  0.04823374  0.17249843  0.13007789     1.27450
Ni389      Ni  0.47747329  0.18726208  0.16806039     1.26060
H390        H  0.49098610  0.21414101  0.22002148     0.40200
O391        O  0.00709563  0.03537527  0.14182116    -0.79760
O392        O  0.03374267  0.39621021  0.17222297    -0.64440
O393        O  0.00125274  0.97327368  0.12620441    -1.11050
C394        C  0.40885954  0.96181807  0.19565520     1.07130
O395        O  0.48708830  0.37661187  0.18931167    -0.77650
O396        O  0.45000535  0.40717870  0.13904699    -0.65230
Ni397      Ni  0.02965504  0.00695174  0.11160626     1.34870
C398        C  0.43897428  0.43052178  0.12018265     0.85870
O399        O  0.05326606  0.42950346  0.11403968    -0.78190
O400        O  0.05418055  0.47753103  0.08382174    -0.88470
C401        C  0.51789647  0.37510362  0.18415493     0.85440
O402        O  0.06336451  0.00133911  0.14418227    -0.66670
O403        O  0.41371025  0.43474332  0.19135163    -0.85960
C404        C  0.06702759  0.48018641  0.17291080     0.86270
C405        C  0.06242871  0.44778806  0.08767747     1.07840
H406        H  0.49130225  0.44774443  0.20520012     0.39640
O407        O  0.48308861  0.44294419  0.18294269    -1.08620
O408        O  0.44041031  0.95920515  0.12682683    -0.65270
Ni409      Ni  0.46810548  0.97955331  0.15905109     1.26350
O410        O  0.04749518  0.45671932  0.17911935    -0.65500
O411        O  0.43035802  0.98394726  0.19053500    -0.77790
C412        C  0.47976576  0.04258061  0.13852039     0.85660
O413        O  0.45789413  0.02095526  0.13806998    -0.64960
Ni414      Ni  0.45266927  0.40822230  0.18826175     1.27450
Ni415      Ni  0.01861935  0.43472562  0.14970574     1.26060
H416        H  0.49586478  0.96600443  0.10538412     0.40200
C417        C  0.49553845  0.09796387  0.12827214    -0.15300
C418        C  0.47143488  0.07721684  0.13728625    -0.30470
H419        H  0.51846253  0.08874209  0.11735718     0.13730
H420        H  0.44835891  0.08540917  0.14870131     0.14300
C421        C  0.52028455  0.32483187  0.21842819    -0.15300
C422        C  0.53414062  0.34431032  0.19342897    -0.30470
H423        H  0.50410471  0.33582162  0.23766575     0.13730
H424        H  0.04942527  0.33265989  0.17670579     0.14300
C425        C  0.12541787  0.47957365  0.18695648    -0.15300
C426        C  0.09386506  0.48459869  0.19679411    -0.30470
H427        H  0.13135300  0.47164341  0.16099617     0.13730
H428        H  0.09623945  0.00575386  0.20599470     0.14300
C429        C  0.35023424  0.98029838  0.19371052    -0.15300
C430        C  0.37574302  0.96801822  0.21142675    -0.30470
H431        H  0.35460425  0.99418701  0.16947961     0.13730
H432        H  0.36772743  0.45503122  0.23597676     0.14300
C433        C  0.37987358  0.18017223  0.20134538    -0.15300
C434        C  0.35672457  0.18825501  0.17875044    -0.30470
H435        H  0.37275860  0.17210059  0.22769109     0.13730
H436        H  0.36480800  0.19836287  0.15339954     0.14300
C437        C  0.10306126  0.19098321  0.21819644    -0.15300
C438        C  0.13409734  0.19238544  0.20459389    -0.30470
H439        H  0.09862495  0.19287915  0.24593904     0.13730
H440        H  0.13787023  0.19450588  0.17657895     0.14300
C441        C  0.25907032  0.09598052  0.25119792    -0.15300
C442        C  0.23801243  0.07934071  0.23346696    -0.30470
H443        H  0.27878927  0.08416811  0.26485418     0.13730
H444        H  0.21895670  0.09231971  0.21971756     0.14300
C445        C  0.21034443  0.32948389  0.18706287    -0.15300
C446        C  0.19654957  0.34672683  0.21218768    -0.30470
H447        H  0.22396823  0.34244108  0.16607289     0.13730
H448        H  0.18273828  0.33476985  0.23364915     0.14300
C449        C  0.43647530  0.39987462  0.06745843    -0.15300
C450        C  0.42501775  0.42378667  0.08688374    -0.30470
H451        H  0.45734329  0.38556231  0.07559071     0.13730
H452        H  0.40633131  0.44010391  0.07705212     0.14300
C453        C  0.44514376  0.25865334  0.09342773    -0.15300
C454        C  0.41708768  0.25215180  0.07865102    -0.30470
H455        H  0.45870132  0.28010748  0.08437860     0.13730
H456        H  0.40142878  0.23330817  0.09057006     0.14300
C457        C  0.08166919  0.43440971  0.05824543    -0.15300
C458        C  0.09614753  0.40515286  0.05819901    -0.30470
H459        H  0.08190744  0.44885936  0.03399935     0.13730
H460        H  0.09711008  0.38995058  0.08177049     0.14300
C461        C  0.09952717  0.25606872  0.09530165    -0.15300
C462        C  0.11680784  0.24343135  0.06901847    -0.30470
H463        H  0.09990142  0.28202675  0.09884570     0.13730
H464        H  0.11648542  0.21773004  0.06432274     0.14300
C465        C  0.27077144  0.37569044  0.00994957    -0.15300
C466        C  0.25575628  0.36198792  0.98421165    -0.30470
H467        H  0.25725051  0.38848231  0.02992291     0.13730
H468        H  0.27035127  0.34882539  0.96525167     0.14300
C469        C  0.01918116  0.30224656  0.95703291    -0.15300
C470        C  0.49903882  0.31884119  0.93492686    -0.30470
H471        H  0.00953470  0.28745188  0.97901059     0.13730
H472        H  0.50882307  0.33325468  0.91266093     0.14300
C473        C  0.14975894  0.20568789  0.94858401    -0.15300
C474        C  0.15621940  0.23573043  0.93435620    -0.30470
H475        H  0.14550660  0.20275772  0.97649007     0.13730
H476        H  0.15717426  0.23962017  0.90635588     0.14300
C477        C  0.16400926  0.48102192  0.95211331    -0.15300
C478        C  0.14938061  0.45916110  0.93293790    -0.30470
H479        H  0.17512305  0.97321110  0.97300866     0.13730
H480        H  0.13402288  0.46847012  0.91242914     0.14300
C481        C  0.36518039  0.21899100  0.95907803    -0.15300
C482        C  0.36399033  0.25045857  0.94760503    -0.30470
H483        H  0.36820106  0.21331551  0.98648526     0.13730
H484        H  0.36475771  0.25635795  0.91991227     0.14300
C485        C  0.35531004  0.49697657  0.95445026    -0.15300
C486        C  0.37471667  0.47672174  0.97320896    -0.30470
H487        H  0.32531934  0.98752475  0.94083169     0.13730
H488        H  0.39367092  0.48826635  0.98711619     0.14300
C489        C  0.26197448  0.11847442  0.87523063    -0.15300
C490        C  0.24410681  0.09143502  0.87855648    -0.30470
H491        H  0.25059008  0.14182192  0.86942808     0.13730
H492        H  0.25504188  0.06787872  0.88418962     0.14300
C493        C  0.49306704  0.12560736  0.91079980    -0.15300
C494        C  0.01589023  0.12393859  0.97742928    -0.30470
H495        H  0.49877913  0.11220474  0.88766224     0.13730
H496        H  0.00332167  0.10667764  0.99531616     0.14300
C497        C  0.33844060  0.26800220  0.29583933    -0.15300
C498        C  0.30809877  0.25653720  0.29567727    -0.30470
H499        H  0.35475049  0.26483585  0.27329208     0.13730
H500        H  0.29107438  0.25919451  0.31766072     0.14300
C501        C  0.28842212  0.43238708  0.31696127    -0.15300
C502        C  0.31862810  0.42131730  0.32252982    -0.30470
H503        H  0.27024434  0.43370163  0.33810946     0.13730
H504        H  0.33672829  0.42099736  0.30117438     0.14300
C505        C  0.13338504  0.26221772  0.33292973    -0.15300
C506        C  0.16445122  0.25262115  0.33342257    -0.30470
H507        H  0.11884864  0.25670102  0.31106155     0.13730
H508        H  0.17887112  0.25636443  0.35583666     0.14300
C509        C  0.13912363  0.41008245  0.34425435    -0.15300
C510        C  0.13414582  0.44067079  0.33234221    -0.30470
H511        H  0.15640429  0.39484421  0.33033939     0.13730
H512        H  0.11964942  0.45698010  0.34814602     0.14300
C513        C  0.98337311  0.35616773  0.40940943    -0.15300
C514        C  0.47615547  0.37623494  0.38927817    -0.30470
H515        H  0.96808594  0.33769321  0.42269994     0.13730
H516        H  0.48951632  0.39523346  0.37461289     0.14300
C517        C  0.24184202  0.31113892  0.42910312    -0.15300
C518        C  0.22339336  0.32148663  0.45576750    -0.30470
H519        H  0.23077370  0.29849847  0.40852479     0.13730
H520        H  0.23537783  0.33419004  0.47574383     0.14300
C521        C  0.08058756  0.21001646  0.46379753    -0.15300
C522        C  0.08941410  0.23975971  0.47373285    -0.30470
H523        H  0.07382770  0.20722328  0.43722088     0.13730
H524        H  0.09951285  0.24191632  0.49906622     0.14300
C525        C  0.09128632  0.49059299  0.44605310    -0.15300
C526        C  0.07862263  0.46473614  0.46441919    -0.30470
H527        H  0.10366971  0.98697629  0.42252869     0.13730
H528        H  0.06519748  0.46786526  0.48886132     0.14300
C529        C  0.38194942  0.24508230  0.43092448    -0.15300
C530        C  0.36689067  0.21727914  0.42352696    -0.30470
H531        H  0.39657866  0.24598801  0.45362929     0.13730
H532        H  0.35203128  0.21702280  0.40091329     0.14300
C533        C  0.38649550  0.49091639  0.42839039    -0.15300
C534        C  0.37312757  0.46508173  0.44676136    -0.30470
H535        H  0.39960040  0.98928152  0.40117067     0.13730
H536        H  0.35865682  0.47018361  0.47012625     0.14300
C537        C  0.99165267  0.08402754  0.50572626    -0.15300
C538        C  0.47787716  0.10602407  0.48586801    -0.30470
H539        H  0.97788870  0.06325790  0.51630638     0.13730
H540        H  0.49191603  0.12711149  0.47648549     0.14300
C541        C  0.23875251  0.12851141  0.43282230    -0.15300
C542        C  0.21992520  0.14300352  0.45648129    -0.30470
H543        H  0.22709580  0.11284896  0.41513290     0.13730
H544        H  0.23051224  0.15868326  0.47482703     0.14300
C545        C  0.17271941  0.03822535  0.58841010    -0.15300
C546        C  0.14473682  0.03095656  0.57358994    -0.30470
H547        H  0.18923819  0.05572386  0.57544333     0.13730
H548        H  0.12680950  0.01587422  0.58797882     0.14300
C549        C  0.31246317  0.05247106  0.57124382    -0.15300
C550        C  0.33214578  0.03929532  0.54712327    -0.30470
H551        H  0.30288780  0.07682964  0.56692320     0.13730
H552        H  0.34330051  0.01571573  0.55205195     0.14300
C553        C  0.31534854  0.18841886  0.56162206    -0.15300
C554        C  0.32627853  0.21302751  0.57949371    -0.30470
H555        H  0.29170002  0.17792459  0.56891626     0.13730
H556        H  0.34860094  0.22542350  0.57081694     0.14300
C557        C  0.14157233  0.18712649  0.58793365    -0.15300
C558        C  0.16561915  0.20588440  0.57451920    -0.30470
H559        H  0.13517790  0.18652139  0.61554077     0.13730
H560        H  0.17007171  0.20854047  0.54659451     0.14300
C561        C  0.25914488  0.36735438  0.62687891    -0.15300
C562        C  0.23231545  0.38593812  0.62999501    -0.30470
H563        H  0.28347728  0.37720433  0.62863245     0.13730
H564        H  0.20806787  0.37620674  0.62717291     0.14300
C565        C  0.22410229  0.13958138  0.70976683    -0.15300
C566        C  0.24457360  0.11456094  0.71360791    -0.30470
H567        H  0.19810188  0.13564701  0.70752561     0.13730
H568        H  0.27064734  0.11849278  0.71509939     0.14300
C569        C  0.08861228  0.47698903  0.70750446    -0.15300
C570        C  0.11728859  0.46258632  0.71522796    -0.30470
H571        H  0.08836447  0.49425764  0.68544696     0.13730
H572        H  0.11845197  0.44447905  0.73636265     0.14300
C573        C  0.36856988  0.47720050  0.69755078    -0.15300
C574        C  0.34059503  0.49439231  0.70297743    -0.30470
H575        H  0.36866024  0.45650389  0.68119696     0.13730
H576        H  0.34077731  0.51419907  0.72054267     0.14300
C577        C  0.08602553  0.02340371  0.85699889    -0.15300
C578        C  0.06612947  0.03670764  0.83382001    -0.30470
H579        H  0.09272600  0.99797016  0.85619978     0.13730
H580        H  0.05972167  0.56139079  0.83713678     0.14300
C581        C  0.42061239  0.01447782  0.83383346    -0.15300
C582        C  0.39949069  0.03795611  0.84151432    -0.30470
H583        H  0.39199786  0.51473412  0.83732106     0.13730
H584        H  0.38729877  0.05094007  0.82054534     0.14300
C585        C  0.39552635  0.26599675  0.66923161    -0.15300
C586        C  0.37011790  0.27972031  0.68654594    -0.30470
H587        H  0.39020530  0.25173945  0.64717019     0.13730
H588        H  0.37391833  0.29310579  0.70957801     0.14300
C589        C  0.11384403  0.26526390  0.68071234    -0.15300
C590        C  0.14380891  0.26930303  0.69348423    -0.30470
H591        H  0.11192187  0.25992287  0.65359662     0.13730
H592        H  0.14612477  0.27104493  0.72124276     0.14300
C593        C  0.49223174  0.36755409  0.73206312    -0.15300
C594        C  0.46898776  0.37976813  0.75318210    -0.30470
H595        H  0.01272258  0.38392115  0.72367557     0.13730
H596        H  0.44914475  0.36509052  0.76462589     0.14300
C597        C  0.53796000  0.12762318  0.71843626    -0.15300
C598        C  0.52478640  0.11092584  0.74585723    -0.30470
H599        H  0.02995411  0.11965723  0.67192844     0.13730
H600        H  0.51479957  0.12423551  0.76762566     0.14300
C601        C  0.43521014  0.19853670  0.82690810    -0.15300
C602        C  0.42728191  0.22122006  0.80256726    -0.30470
H603        H  0.45927220  0.18739780  0.82532547     0.13730
H604        H  0.40413789  0.23400897  0.80483846     0.14300
C605        C  0.08833054  0.21234078  0.81330679    -0.15300
C606        C  0.07617937  0.18669525  0.83178220    -0.30470
H607        H  0.11294837  0.22064953  0.81709022     0.13730
H608        H  0.05072482  0.18005573  0.83015038     0.14300
O609        O  0.49091460  0.66450994  0.69450239    -0.79760
O610        O  0.47352709  0.80889894  0.73436754    -0.64440
O611        O  0.49473880  0.73047526  0.69322308    -1.11050
C612        C  0.06951356  0.72790334  0.78662736     1.07130
O613        O  0.02826701  0.82332421  0.72989030    -0.77650
O614        O  0.08092260  0.78203467  0.72720811    -0.65230
Ni615      Ni  0.46090119  0.69951704  0.69063860     1.34870
C616        C  0.08347978  0.76272995  0.70269358     0.85870
O617        O  0.44839117  0.77986270  0.68225203    -0.78190
O618        O  0.42638210  0.73076590  0.68397429    -0.88470
C619        C  0.49590328  0.82901052  0.72663587     0.85440
O620        O  0.45251388  0.69747118  0.73983746    -0.66670
O621        O  0.06485217  0.75814585  0.79055995    -0.85960
C622        C  0.44307226  0.72130026  0.75743691     0.86270
C623        C  0.42495790  0.76105434  0.67708619     1.07840
H624        H  0.00348567  0.75421578  0.77061280     0.39640
O625        O  0.01421320  0.76081109  0.74874302    -1.08620
O626        O  0.06105929  0.74264128  0.69684200    -0.65270
Ni627      Ni  0.02689569  0.72299605  0.72729538     1.26350
O628        O  0.44874554  0.75055418  0.74728770    -0.65500
O629        O  0.05812741  0.71208552  0.76200795    -0.77790
C630        C  0.01711815  0.66377514  0.69588468     0.85660
O631        O  0.03754809  0.68386893  0.70570673    -0.64960
Ni632      Ni  0.04622262  0.79048015  0.76026010     1.27450
Ni633      Ni  0.48153020  0.76925403  0.71442722     1.26060
H634        H  0.50421038  0.73546314  0.67029021     0.40200
O635        O  0.00471001  0.92268800  0.76603585    -0.79760
O636        O  0.02220464  0.55675247  0.72380606    -0.64440
O637        O  0.99188848  0.98573884  0.77625480    -1.11050
C638        C  0.40233894  0.99367438  0.71341933     1.07130
O639        O  0.47366765  0.57910150  0.72755003    -0.77650
O640        O  0.43330987  0.54504620  0.77049791    -0.65230
Ni641      Ni  0.02289057  0.95533659  0.79218587     1.34870
C642        C  0.43180734  0.01271417  0.79759791     0.85870
O643        O  0.04133260  0.53012464  0.78261037    -0.78190
O644        O  0.04167997  0.98780273  0.81888764    -0.88470
C645        C  0.50477459  0.57972041  0.72542656     0.85440
O646        O  0.05809928  0.96131244  0.75775637    -0.66670
O647        O  0.40678639  0.02264599  0.72260972    -0.85960
C648        C  0.05912824  0.97765565  0.72915430     0.86270
C649        C  0.04908663  0.01697194  0.80961839     1.07840
H650        H  0.48176221  0.01348505  0.70391581     0.39640
O651        O  0.47543844  0.01433369  0.72822803    -1.08620
O652        O  0.43470984  0.98541309  0.78394348    -0.65270
Ni653      Ni  0.46167198  0.97251189  0.74475155     1.26350
O654        O  0.03613248  0.99671319  0.72055205    -0.65500
O655        O  0.42443428  0.97194936  0.71602342    -0.77790
C656        C  0.47436398  0.90955607  0.74834743     0.85660
O657        O  0.45277459  0.92906629  0.75904155    -0.64960
Ni658      Ni  0.44078980  0.54638558  0.72183563     1.27450
Ni659      Ni  0.00726036  0.02156157  0.74981101     1.26060
H660        H  0.49039273  0.97870372  0.79730613     0.40200
O661        O  0.26976459  0.67332189  0.69151040    -0.79760
O662        O  0.27949125  0.81391007  0.62100561    -0.64440
O663        O  0.26605894  0.73897841  0.67945185    -1.11050
C664        C  0.18508770  0.72412763  0.59648513     1.07130
O665        O  0.22622329  0.82205197  0.62958383    -0.77650
O666        O  0.17458780  0.78045433  0.64064951    -0.65230
Ni667      Ni  0.30010184  0.70796632  0.68310412     1.34870
C668        C  0.17433963  0.76701359  0.67080012     0.85870
O669        O  0.31223834  0.78853095  0.67493660    -0.78190
O670        O  0.33482218  0.73928891  0.67768796    -0.88470
C671        C  0.25513960  0.83282017  0.62479569     0.85440
O672        O  0.30146460  0.70146607  0.63426786    -0.66670
O673        O  0.19311046  0.75172220  0.58296314    -0.85960
C674        C  0.31013389  0.72324749  0.61151163     0.86270
C675        C  0.33677492  0.76993624  0.67908931     1.07840
H676        H  0.25090879  0.74917656  0.60305986     0.39640
O677        O  0.24164109  0.75920572  0.62332139    -1.08620
O678        O  0.19923299  0.75187003  0.68194556    -0.65270
Ni679      Ni  0.22905651  0.72572071  0.65444342     1.26350
O680        O  0.30641185  0.75343257  0.61680520    -0.65500
O681        O  0.19370366  0.71304689  0.62634096    -0.77790
C682        C  0.23900305  0.67013246  0.69602225     0.85660
O683        O  0.21867964  0.69151113  0.68663366    -0.64960
Ni684      Ni  0.20953667  0.78698251  0.60613919     1.27450
Ni685      Ni  0.27604162  0.77516162  0.64901476     1.26060
H686        H  0.25931632  0.74609180  0.70214575     0.40200
O687        O  0.20683489  0.57502324  0.70493492    -0.79760
O688        O  0.21090081  0.93728163  0.64143139    -0.64440
O689        O  0.21788893  0.01274748  0.69190102    -1.11050
C690        C  0.29893813  0.03235772  0.60063791     1.07130
O691        O  0.26356388  0.93025774  0.65108726    -0.77650
O692        O  0.31244007  0.97483356  0.66087902    -0.65230
Ni693      Ni  0.18026458  0.53894410  0.69608860     1.34870
C694        C  0.31187603  0.99562867  0.68410575     0.85870
O695        O  0.17485723  0.96021283  0.69565404    -0.78190
O696        O  0.14827167  0.00622176  0.68778699    -0.88470
C697        C  0.23634535  0.91958832  0.64175910     0.85440
O698        O  0.18351602  0.54807984  0.64728090    -0.66670
O699        O  0.30079851  0.00163309  0.59808213    -0.85960
C700        C  0.18009898  0.02712845  0.62411181     0.86270
C701        C  0.14862615  0.97675205  0.69813347     1.07840
H702        H  0.23839652  0.99880753  0.61489592     0.39640
O703        O  0.24665504  0.99227829  0.63716586    -1.08620
O704        O  0.28723393  0.01404950  0.68946864    -0.65270
Ni705      Ni  0.25234248  0.03002449  0.66045616     1.26350
O706        O  0.18285254  0.99671514  0.63203843    -0.65500
O707        O  0.28392121  0.54438200  0.62559836    -0.77790
C708        C  0.23673619  0.58253416  0.70095419     0.85660
O709        O  0.25799425  0.56566744  0.68536962    -0.64960
Ni710      Ni  0.28265688  0.96613431  0.62534792     1.27450
Ni711      Ni  0.21158164  0.97549240  0.66613294     1.26060
H712        H  0.22583680  0.00689234  0.71461427     0.40200
O713        O  0.43136994  0.63464529  0.47426024    -0.79760
O714        O  0.29136222  0.64068635  0.45207077    -0.64440
O715        O  0.37006063  0.61996040  0.49393472    -1.11050
C716        C  0.37488056  0.52434749  0.43666853     1.07130
O717        O  0.27714918  0.59031044  0.44049350    -0.77650
O718        O  0.31156997  0.56181872  0.49427338    -0.65230
Ni719      Ni  0.39890886  0.65253007  0.50496080     1.34870
C720        C  0.33612456  0.55382394  0.51201356     0.85870
O721        O  0.31989289  0.66289862  0.50738384    -0.78190
O722        O  0.36609166  0.67048276  0.53585868    -0.88470
C723        C  0.27141826  0.62042504  0.44166990     0.85440
O724        O  0.38916264  0.68576724  0.47116381    -0.66670
O725        O  0.34496268  0.52670599  0.44603221    -0.85960
C726        C  0.37017231  0.68680061  0.44617075     0.86270
C727        C  0.33526746  0.67385516  0.53262344     1.07840
H728        H  0.34709843  0.60445299  0.41893965     0.39640
O729        O  0.34316640  0.59629418  0.44256422    -1.08620
O730        O  0.36538720  0.55635741  0.49987981    -0.65270
Ni731      Ni  0.38323371  0.58602226  0.46385227     1.26350
O732        O  0.35034876  0.66394979  0.44115229    -0.65500
O733        O  0.39347693  0.54919852  0.43515113    -0.77790
C734        C  0.44290872  0.60653282  0.48089634     0.85660
O735        O  0.42464127  0.58172756  0.48379080    -0.64960
Ni736      Ni  0.31316742  0.56122145  0.44468195     1.27450
Ni737      Ni  0.33118710  0.63104111  0.47333731     1.26060
H738        H  0.36386685  0.61040510  0.51645494     0.40200
O739        O  0.18994254  0.59653018  0.46988771    -0.79760
O740        O  0.04452361  0.56775389  0.52419695    -0.64440
O741        O  0.12256753  0.59263700  0.47454364    -1.11050
C742        C  0.12370245  0.66536208  0.56702996     1.07130
O743        O  0.03115165  0.62023068  0.52147586    -0.77650
O744        O  0.06938363  0.67585262  0.51781342    -0.65230
Ni745      Ni  0.15762294  0.56288378  0.46970607     1.34870
C746        C  0.08528353  0.67935519  0.48891756     0.85870
O747        O  0.07742634  0.54227958  0.46968944    -0.78190
O748        O  0.12952284  0.52597741  0.46579918    -0.88470
C749        C  0.02377949  0.59034063  0.51939071     0.85440
O750        O  0.15985483  0.55537610  0.51881881    -0.66670
O751        O  0.09562673  0.65507450  0.57750097    -0.85960
C752        C  0.13699510  0.54431916  0.53921723     0.86270
C753        C  0.09925469  0.52142611  0.46171397     1.07840
H754        H  0.10446583  0.59936506  0.55154398     0.39640
O755        O  0.09525631  0.60954848  0.53120330    -1.08620
O756        O  0.10345629  0.65680772  0.47749551    -0.65270
Ni757      Ni  0.12997393  0.62736706  0.50480302     1.26350
O758        O  0.10703690  0.54592742  0.53140526    -0.65500
O759        O  0.13693875  0.65985926  0.53728820    -0.77790
C760        C  0.18985313  0.62745142  0.46853730     0.85660
O761        O  0.16553707  0.64417757  0.47772887    -0.64960
Ni762      Ni  0.06348660  0.63788646  0.54918908     1.27450
Ni763      Ni  0.08500259  0.57676514  0.50036826     1.26060
H764        H  0.11649644  0.60099665  0.45195984     0.40200
O765        O  0.18374722  0.86778026  0.46399507    -0.79760
O766        O  0.04045002  0.87384278  0.40608685    -0.64440
O767        O  0.11800924  0.86177913  0.45648970    -1.11050
C768        C  0.13177266  0.77975452  0.37345061     1.07130
O769        O  0.03299246  0.82170952  0.42016907    -0.77650
O770        O  0.07489994  0.77012253  0.42841779    -0.65230
Ni771      Ni  0.14826439  0.89655664  0.45538957     1.34870
C772        C  0.09123335  0.76980118  0.45558754     0.85870
O773        O  0.06766955  0.90888346  0.45540969    -0.78190
O774        O  0.11682904  0.93079848  0.44861358    -0.88470
C775        C  0.02175048  0.84932967  0.41083759     0.85440
O776        O  0.15492360  0.89312943  0.40661915    -0.66670
O777        O  0.10218800  0.78489711  0.36540547    -0.85960
C778        C  0.13319393  0.89929691  0.38473650     0.86270
C779        C  0.08640470  0.93335306  0.45543023     1.07840
H780        H  0.10406138  0.84322858  0.38230098     0.39640
O781        O  0.09556845  0.83517894  0.40465960    -1.08620
O782        O  0.10941558  0.79360677  0.46244597    -0.65270
Ni783      Ni  0.13191208  0.82470631  0.43010603     1.26350
O784        O  0.10257994  0.89839011  0.39317625    -0.65500
O785        O  0.14453428  0.79001838  0.40057503    -0.77790
C786        C  0.19005219  0.83771739  0.46422130     0.85660
O787        O  0.17026543  0.81649613  0.45518427    -0.64960
Ni788      Ni  0.06731252  0.80287849  0.39287223     1.27450
Ni789      Ni  0.08038939  0.87105978  0.43005344     1.26060
H790        H  0.11162307  0.85523420  0.48013289     0.40200
O791        O  0.43116754  0.83254440  0.37266281    -0.79760
O792        O  0.29528403  0.81289485  0.42360819    -0.64440
O793        O  0.36589241  0.84309232  0.36666389    -1.11050
C794        C  0.36827882  0.93460808  0.43236526     1.07130
O795        O  0.27427156  0.86158531  0.43444472    -0.77650
O796        O  0.30292791  0.90077411  0.38186371    -0.65230
Ni797      Ni  0.39654864  0.81355901  0.34870459     1.34870
C798        C  0.32515239  0.90970135  0.35948070     0.85870
O799        O  0.32094102  0.79320666  0.36384480    -0.78190
O800        O  0.36274515  0.79415722  0.32407141    -0.88470
C801        C  0.27257203  0.83069789  0.43500500     0.85440
O802        O  0.39212981  0.77819448  0.38289213    -0.66670
O803        O  0.33760823  0.93061588  0.43078299    -0.85960
C804        C  0.37610894  0.77561902  0.41170914     0.86270
C805        C  0.33430588  0.78489145  0.33501038     1.07840
H806        H  0.34849421  0.85446012  0.44587802     0.39640
O807        O  0.34145578  0.86269971  0.42360861    -1.08620
O808        O  0.35552080  0.90676990  0.36497728    -0.65270
Ni809      Ni  0.37852347  0.87686642  0.39559981     1.26350
O810        O  0.35697900  0.79776882  0.42218998    -0.65500
O811        O  0.38877368  0.91252463  0.42421619    -0.77790
C812        C  0.43904297  0.86245719  0.37290478     0.85660
O813        O  0.41800259  0.88490039  0.36912633    -0.64960
Ni814      Ni  0.30806396  0.89416966  0.43060455     1.27450
Ni815      Ni  0.33091424  0.82726581  0.39474298     1.26060
H816        H  0.35642400  0.85285825  0.34624690     0.40200
O817        O  0.31136957  0.64073911  0.89163197    -0.79760
O818        O  0.44672211  0.65144568  0.93272797    -0.64440
O819        O  0.37481377  0.62879653  0.88239668    -1.11050
C820        C  0.36634586  0.53158336  0.94763721     1.07130
O821        O  0.46191161  0.60180692  0.95030345    -0.77650
O822        O  0.43561388  0.56933976  0.89802938    -0.65230
Ni823      Ni  0.34645630  0.66150265  0.86594058     1.34870
C824        C  0.41481962  0.56217582  0.87610468     0.85870
O825        O  0.42439661  0.67343007  0.87286010    -0.78190
O826        O  0.38156816  0.68147584  0.83875118    -0.88470
C827        C  0.46694137  0.63209044  0.94608507     0.85440
O828        O  0.35024286  0.69374889  0.90026302    -0.66670
O829        O  0.39702385  0.53598247  0.94659227    -0.85960
C830        C  0.36639561  0.69387094  0.92758078     0.86270
C831        C  0.41170455  0.68461265  0.84500915     1.07840
H832        H  0.38784195  0.61280339  0.96117727     0.39640
O833        O  0.39571383  0.60483307  0.93921142    -1.08620
O834        O  0.38401712  0.56495736  0.88173108    -0.65270
Ni835      Ni  0.35947812  0.59323836  0.91232918     1.26350
O836        O  0.38665097  0.67150754  0.93529971    -0.65500
O837        O  0.34662085  0.55495872  0.94094316    -0.77790
C838        C  0.30232218  0.61273875  0.88358910     0.85660
O839        O  0.32138414  0.58828027  0.88616221    -0.64960
Ni840      Ni  0.42721624  0.57143317  0.94677627     1.27450
Ni841      Ni  0.41026557  0.64048219  0.90746921     1.26060
H842        H  0.38393812  0.61999981  0.86136359     0.40200
O843        O  0.05603741  0.58347053  0.96479638    -0.79760
O844        O  0.19398500  0.56821280  0.88397850    -0.64440
O845        O  0.12082953  0.58713219  0.94383242    -1.11050
C846        C  0.10195303  0.66360060  0.84939100     1.07130
O847        O  0.20457771  0.62086300  0.88394012    -0.77650
O848        O  0.16470408  0.67370165  0.89466552    -0.65230
Ni849      Ni  0.09051225  0.55331937  0.95582556     1.34870
C850        C  0.14871217  0.67601605  0.92328600     0.85870
O851        O  0.17053354  0.53898611  0.94308464    -0.78190
O852        O  0.12095705  0.51814894  0.95101734    -0.88470
C853        C  0.21414594  0.59151819  0.88148756     0.85440
O854        O  0.08033114  0.55087427  0.90813841    -0.66670
O855        O  0.13158709  0.65929214  0.83902135    -0.85960
C856        C  0.10084237  0.54126975  0.88502675     0.86270
C857        C  0.15174219  0.51487131  0.94946158     1.07840
H858        H  0.13028021  0.59868697  0.86422937     0.39640
O859        O  0.13988000  0.60851201  0.88355591    -1.08620
O860        O  0.12880047  0.65421232  0.93510850    -0.65270
Ni861      Ni  0.10492648  0.62114526  0.91244126     1.26350
O862        O  0.13166706  0.54475384  0.88707020    -0.65500
O863        O  0.08956495  0.65245694  0.87838703    -0.77790
C864        C  0.05033796  0.61348215  0.96003138     0.85660
O865        O  0.06892603  0.63250759  0.94197143    -0.64960
Ni866      Ni  0.16774074  0.63991432  0.86197274     1.27450
Ni867      Ni  0.15635143  0.57484206  0.91344798     1.26060
H868        H  0.12894095  0.59600614  0.96450911     0.40200
O869        O  0.05010394  0.84942844  0.95659132    -0.79760
O870        O  0.19689026  0.87166426  0.99485138    -0.64440
O871        O  0.11791374  0.85248745  0.95176020    -1.11050
C872        C  0.12443960  0.76450510  0.03531870     1.07130
O873        O  0.21104907  0.82255221  0.97847344    -0.77650
O874        O  0.17510287  0.76547113  0.97537670    -0.65230
Ni875      Ni  0.08266694  0.88262218  0.95055679     1.34870
C876        C  0.15540276  0.76479092  0.95097257     0.85870
O877        O  0.16275426  0.90552462  0.94826392    -0.78190
O878        O  0.11053853  0.91974331  0.94274983    -0.88470
C879        C  0.21867562  0.85098852  0.98665066     0.85440
O880        O  0.08098086  0.88831817  0.99920137    -0.66670
O881        O  0.15370284  0.77301619  0.04025044    -0.85960
C882        C  0.10379663  0.89364002  0.01944140     0.86270
C883        C  0.14081110  0.92633867  0.94097246     1.07840
H884        H  0.14074020  0.83242905  0.02454056     0.39640
O885        O  0.14825161  0.82657791  0.00162621    -1.08620
O886        O  0.13505152  0.78764607  0.94541216    -0.65270
Ni887      Ni  0.11169926  0.81281248  0.97977776     1.26350
O888        O  0.13393951  0.88855091  0.01162428    -0.65500
O889        O  0.10731811  0.77497232  0.01021092    -0.77790
C890        C  0.04872651  0.81870195  0.95553063     0.85660
O891        O  0.07332322  0.80047824  0.95847195    -0.64960
Ni892      Ni  0.18244905  0.79730797  0.00921824     1.27450
Ni893      Ni  0.15617679  0.86522573  0.97453497     1.26060
H894        H  0.12407157  0.84740555  0.92819873     0.40200
O895        O  0.30705265  0.82999678  0.01462227    -0.79760
O896        O  0.44635623  0.82155651  0.96235216    -0.64440
O897        O  0.37216615  0.83699279  0.01998928    -1.11050
C898        C  0.36639317  0.94168939  0.97475242     1.07130
O899        O  0.45574541  0.87131548  0.93910371    -0.77650
O900        O  0.43691559  0.89238658  0.00406658    -0.65230
Ni901      Ni  0.34190876  0.80433531  0.03296171     1.34870
C902        C  0.41802951  0.89656189  0.03059347     0.85870
O903        O  0.42183576  0.79221390  0.02097121    -0.78190
O904        O  0.37589046  0.77829071  0.05254160    -0.88470
C905        C  0.46272468  0.84142978  0.94281318     0.85440
O906        O  0.34495032  0.77830073  0.99287704    -0.66670
O907        O  0.39691313  0.93643441  0.97274666    -0.85960
C908        C  0.36445413  0.77867371  0.96643948     0.86270
C909        C  0.40643300  0.77559850  0.04527254     1.07840
H910        H  0.38479648  0.86142710  0.94298658     0.39640
O911        O  0.39343549  0.86714386  0.96475700    -1.08620
O912        O  0.38676041  0.89780279  0.02914838    -0.65270
Ni913      Ni  0.35868746  0.87642814  0.99730905     1.26350
O914        O  0.38681424  0.79981688  0.96121433    -0.65500
O915        O  0.34643965  0.91816523  0.97576698    -0.77790
C916        C  0.29989886  0.85944531  0.02089584     0.85660
O917        O  0.32159644  0.87967372  0.02795348    -0.64960
Ni918      Ni  0.42438334  0.90109831  0.95754380     1.27450
Ni919      Ni  0.40848264  0.82862831  0.99121114     1.26060
H920        H  0.38069120  0.84213579  0.04198367     0.40200
O921        O  0.25558510  0.78486283  0.17964860    -0.79760
O922        O  0.27115427  0.65477551  0.27177600    -0.64440
O923        O  0.25158888  0.72043260  0.20353629    -1.11050
C924        C  0.17273780  0.74383759  0.29440274     1.07130
O925        O  0.21907572  0.64140238  0.26897267    -0.77650
O926        O  0.16502827  0.67927763  0.25439157    -0.65230
Ni927      Ni  0.28456301  0.74847041  0.18305669     1.34870
C928        C  0.16293472  0.69302095  0.22448229     0.85870
O929        O  0.30087469  0.67135417  0.21186122    -0.78190
O930        O  0.31853863  0.71629563  0.18355120    -0.88470
C931        C  0.24917455  0.63347176  0.27032423     0.85440
O932        O  0.29782703  0.76237025  0.22640039    -0.66670
O933        O  0.17896864  0.71563418  0.30731323    -0.85960
C934        C  0.30335628  0.74634520  0.25438137     0.86270
C935        C  0.32306246  0.68745029  0.19518014     1.07840
H936        H  0.23922993  0.71802590  0.28334245     0.39640
O937        O  0.22988310  0.70659653  0.26490782    -1.08620
O938        O  0.18484523  0.71206587  0.21133787    -0.65270
Ni939      Ni  0.21667870  0.73830513  0.23265580     1.26350
O940        O  0.29411334  0.71705562  0.26091389    -0.65500
O941        O  0.18319599  0.75461162  0.26434219    -0.77790
C942        C  0.22571723  0.79152019  0.18574544     0.85660
O943        O  0.20550472  0.77174135  0.20022585    -0.64960
Ni944      Ni  0.19895294  0.67893107  0.28767613     1.27450
Ni945      Ni  0.26456085  0.68872097  0.23805887     1.26060
H946        H  0.24222776  0.70917749  0.18498036     0.40200
O947        O  0.20658939  0.54075154  0.23527087    -0.79760
O948        O  0.19628966  0.89129623  0.23156846    -0.64440
O949        O  0.21412944  0.48050612  0.26236294    -1.11050
C950        C  0.31487849  0.47385693  0.20453039     1.07130
O951        O  0.24514962  0.87726459  0.20893070    -0.77650
O952        O  0.27104360  0.91014452  0.26287369    -0.65230
Ni953      Ni  0.18227794  0.51294450  0.26776258     1.34870
C954        C  0.27689416  0.93446347  0.28081046     0.85870
O955        O  0.17069933  0.92798975  0.28159175    -0.78190
O956        O  0.15821717  0.48532635  0.30097842    -0.88470
C957        C  0.21501933  0.87187313  0.21586281     0.85440
O958        O  0.15203127  0.50251801  0.23340670    -0.66670
O959        O  0.31217589  0.94088281  0.21574740    -0.85960
C960        C  0.15191413  0.48016553  0.21199563     0.86270
C961        C  0.15582917  0.94802453  0.30140901     1.07840
H962        H  0.23390871  0.94484326  0.18892814     0.39640
O963        O  0.24141376  0.94189230  0.21223368    -1.08620
O964        O  0.27683876  0.46853933  0.26980419    -0.65270
Ni965      Ni  0.25167402  0.48799777  0.23233762     1.26350
O966        O  0.17323904  0.94715160  0.21210737    -0.65500
O967        O  0.29111145  0.49385566  0.20315451    -0.77790
C968        C  0.23501218  0.55022078  0.24210581     0.85660
O969        O  0.25760096  0.53003112  0.24926950    -0.64960
Ni970      Ni  0.27605368  0.91109771  0.21368865     1.27450
Ni971      Ni  0.20492024  0.93367785  0.24578413     1.26060
H972        H  0.22123933  0.47617225  0.28562365     0.40200
O973        O  0.48186290  0.78562163  0.20717517    -0.79760
O974        O  0.47408919  0.65237568  0.13059978    -0.64440
O975        O  0.48581614  0.72215916  0.19008168    -1.11050
C976        C  0.07673345  0.73356642  0.11396720     1.07130
O977        O  0.02267296  0.63620648  0.15065087    -0.77650
O978        O  0.07527599  0.67325006  0.16754212    -0.65230
Ni979      Ni  0.45233455  0.75427454  0.19223114     1.34870
C980        C  0.07459317  0.69111309  0.19343307     0.85870
O981        O  0.43517882  0.67689339  0.18005202    -0.78190
O982        O  0.41716722  0.72742464  0.17899413    -0.88470
C983        C  0.49612813  0.63076806  0.13373325     0.85440
O984        O  0.46204938  0.76622718  0.14467734    -0.66670
O985        O  0.07241437  0.70418747  0.10643806    -0.85960
C986        C  0.45709721  0.74779462  0.11989013     0.86270
C987        C  0.41199169  0.69728475  0.17832697     1.07840
H988        H  0.00897848  0.70978410  0.11751635     0.39640
O989        O  0.01477099  0.70040651  0.13976385    -1.08620
O990        O  0.05165416  0.71146072  0.19910572    -0.65270
Ni991      Ni  0.02358670  0.73502269  0.16725824     1.26350
O992        O  0.45688426  0.71674847  0.12397369    -0.65500
O993        O  0.06135590  0.74772351  0.13860729    -0.77790
C994        C  0.51227751  0.79090871  0.20589050     0.85660
O995        O  0.03043866  0.77158907  0.19401013    -0.64960
Ni996      Ni  0.04771712  0.67037640  0.12891916     1.27450
Ni997      Ni  0.47733903  0.68836694  0.15931476     1.26060
H998        H  0.48981346  0.71309985  0.21300783     0.40200
O999        O  0.00731601  0.53449193  0.14332719    -0.79760
O1000       O  0.03351368  0.89588169  0.16740505    -0.64440
O1001       O  0.00201722  0.47219583  0.12788095    -1.11050
C1002       C  0.40751435  0.46404999  0.19789149     1.07130
O1003       O  0.48798955  0.87351985  0.18390743    -0.77650
O1004       O  0.45041190  0.90615082  0.13505018    -0.65230
Ni1005     Ni  0.03087270  0.50584004  0.11399783     1.34870
C1006       C  0.43941288  0.93013114  0.11709641     0.85870
O1007       O  0.05066917  0.92977701  0.10905136    -0.78190
O1008       O  0.05225890  0.97874213  0.08060778    -0.88470
C1009       C  0.51911248  0.87306189  0.18243068     0.85440
O1010       O  0.06433000  0.50001011  0.14719482    -0.66670
O1011       O  0.41487985  0.93244674  0.18897915    -0.85960
C1012       C  0.06843956  0.98010602  0.16800428     0.86270
C1013       C  0.05966487  0.94868050  0.08319945     1.07840
H1014       H  0.49084011  0.94475841  0.20393697     0.39640
O1015       O  0.48368587  0.94041120  0.18110872    -1.08620
O1016       O  0.43871117  0.45984848  0.12935637    -0.65270
Ni1017     Ni  0.46625306  0.48162941  0.16076229     1.26350
O1018       O  0.05020819  0.95549248  0.17384240    -0.65500
O1019       O  0.42900260  0.48610857  0.19283818    -0.77790
C1020       C  0.47630618  0.54434997  0.13853640     0.85660
O1021       O  0.45466748  0.52244223  0.13918997    -0.64960
Ni1022     Ni  0.45352419  0.90550816  0.18441380     1.27450
Ni1023     Ni  0.01817202  0.93513626  0.14651812     1.26060
H1024       H  0.49308440  0.46874442  0.10656151     0.40200
C1025       C  0.49212781  0.59844071  0.12141983    -0.15300
C1026       C  0.46817193  0.57882156  0.13388881    -0.30470
H1027       H  0.51414150  0.58790567  0.10982319     0.13730
H1028       H  0.44608431  0.58828540  0.14630068     0.14300
C1029       C  0.52185584  0.82276635  0.21641511    -0.15300
C1030       C  0.53570664  0.84256512  0.19181036    -0.30470
H1031       H  0.50550315  0.83351399  0.23566924     0.13730
H1032       H  0.04887336  0.83250878  0.17158044     0.14300
C1033       C  0.12344835  0.96557293  0.18846478    -0.15300
C1034       C  0.09671238  0.98486248  0.18990747    -0.30470
H1035       H  0.12383472  0.94528080  0.17150400     0.13730
H1036       H  0.08744351  0.48903879  0.22373277     0.14300
C1037       C  0.34935084  0.48391331  0.19539814    -0.15300
C1038       C  0.37419903  0.47023668  0.21308028    -0.30470
H1039       H  0.35441271  0.49873424  0.17192323     0.13730
H1040       H  0.37006517  0.95369675  0.23515341     0.14300
C1041       C  0.37861975  0.68821744  0.16969463    -0.15300
C1042       C  0.35695350  0.67435969  0.19271291    -0.30470
H1043       H  0.36895996  0.70303965  0.14849726     0.13730
H1044       H  0.36552070  0.65982808  0.21463939     0.14300
C1045       C  0.10270612  0.68947902  0.21682136    -0.15300
C1046       C  0.13384624  0.68718899  0.20376908    -0.30470
H1047       H  0.09840716  0.69496938  0.24386712     0.13730
H1048       H  0.13797142  0.68572463  0.17591726     0.14300
C1049       C  0.25777562  0.59974134  0.26420328    -0.15300
C1050       C  0.24010906  0.58493277  0.24130047    -0.30470
H1051       H  0.27482749  0.58666275  0.28048023     0.13730
H1052       H  0.22331946  0.59917722  0.22563009     0.14300
C1053       C  0.21631897  0.82531800  0.17992174    -0.15300
C1054       C  0.20204957  0.84061689  0.20648074    -0.30470
H1055       H  0.23147698  0.83930860  0.16103087     0.13730
H1056       H  0.18694945  0.82737169  0.22599872     0.14300
C1057       C  0.43312808  0.90067394  0.06390413    -0.15300
C1058       C  0.42366479  0.92453782  0.08440437    -0.30470
H1059       H  0.45397008  0.88557165  0.07039050     0.13730
H1060       H  0.40499540  0.94158262  0.07599399     0.14300
C1061       C  0.44885618  0.76374491  0.08641739    -0.15300
C1062       C  0.42446390  0.75292343  0.06805639    -0.30470
H1063       H  0.45780239  0.78820066  0.08084510     0.13730
H1064       H  0.41263146  0.73029206  0.07640535     0.14300
C1065       C  0.07736040  0.93543934  0.05284929    -0.15300
C1066       C  0.09413929  0.90742260  0.05297560    -0.30470
H1067       H  0.07495665  0.94894556  0.02826567     0.13730
H1068       H  0.09876998  0.89394450  0.07703921     0.14300
C1069       C  0.09989365  0.75243526  0.09184613    -0.15300
C1070       C  0.10871713  0.74227462  0.06039229    -0.30470
H1071       H  0.10693353  0.77630968  0.09954437     0.13730
H1072       H  0.09936827  0.71988377  0.05104313     0.14300
C1073       C  0.26665799  0.87022831  0.01433489    -0.15300
C1074       C  0.25311351  0.85845217  0.98664920    -0.30470
H1075       H  0.25224875  0.88213384  0.03432015     0.13730
H1076       H  0.26847552  0.84596902  0.96778105     0.14300
C1077       C  0.01637507  0.80439250  0.95326346    -0.15300
C1078       C  0.49316262  0.83098688  0.92543511    -0.30470
H1079       H  0.00776898  0.78932233  0.97549111     0.13730
H1080       H  0.50342150  0.84838017  0.90606243     0.14300
C1081       C  0.15328141  0.70531244  0.94383568    -0.15300
C1082       C  0.15528539  0.73579701  0.92925357    -0.30470
H1083       H  0.15169384  0.70217180  0.97192243     0.13730
H1084       H  0.15295646  0.73950519  0.90146277     0.14300
C1085       C  0.16223484  0.98153852  0.95029072    -0.15300
C1086       C  0.14901039  0.96006483  0.92952816    -0.30470
H1087       H  0.17830931  0.47327034  0.97401618     0.13730
H1088       H  0.13466998  0.96984829  0.90839322     0.14300
C1089       C  0.36177695  0.72085645  0.95179757    -0.15300
C1090       C  0.36211993  0.75255798  0.94116053    -0.30470
H1091       H  0.36247510  0.71468779  0.97938779     0.13730
H1092       H  0.36557220  0.75898124  0.91369887     0.14300
C1093       C  0.34081899  0.99686007  0.96013398    -0.15300
C1094       C  0.35657907  0.97586037  0.98181669    -0.30470
H1095       H  0.33577017  0.48752809  0.93980869     0.13730
H1096       H  0.37205956  0.98661051  0.00031909     0.14300
C1097       C  0.26917509  0.61035929  0.87205543    -0.15300
C1098       C  0.24948214  0.58523422  0.88008542    -0.30470
H1099       H  0.25883518  0.63304204  0.86209856     0.13730
H1100       H  0.25896338  0.56230917  0.89029375     0.14300
C1101       C  0.49916683  0.64435520  0.95393895    -0.15300
C1102       C  0.01894615  0.62499519  0.97401732    -0.30470
H1103       H  0.51019171  0.66178362  0.93514961     0.13730
H1104       H  0.00665850  0.60844784  0.99290425     0.14300
C1105       C  0.31571067  0.76382376  0.31301667    -0.15300
C1106       C  0.32308706  0.76300064  0.27892626    -0.30470
H1107       H  0.29452836  0.75091332  0.32416001     0.13730
H1108       H  0.34249992  0.77833267  0.26758380     0.14300
C1109       C  0.28493812  0.92789049  0.31698542    -0.15300
C1110       C  0.31604502  0.92322929  0.32527645    -0.30470
H1111       H  0.26510977  0.92265029  0.33584556     0.13730
H1112       H  0.33540068  0.92768432  0.30557777     0.14300
C1113       C  0.15242459  0.76052937  0.35067659    -0.15300
C1114       C  0.15235022  0.76474564  0.31603625    -0.30470
H1115       H  0.16932662  0.74356498  0.36274931     0.13730
H1116       H  0.13780030  0.78379974  0.30390308     0.14300
C1117       C  0.14478745  0.90764961  0.34883556    -0.15300
C1118       C  0.13607740  0.93519122  0.33187339    -0.30470
H1119       H  0.16550786  0.89391852  0.33877518     0.13730
H1120       H  0.11793211  0.95092369  0.34381294     0.14300
C1121       C  0.98689356  0.85083637  0.40559818    -0.15300
C1122       C  0.47245079  0.87012669  0.38201712    -0.30470
H1123       H  0.97294982  0.83067198  0.41752391     0.13730
H1124       H  0.48462331  0.89177754  0.37127487     0.14300
C1125       C  0.24175003  0.81534577  0.44699871    -0.15300
C1126       C  0.22352832  0.82897655  0.47188825    -0.30470
H1127       H  0.23063554  0.79938414  0.42928654     0.13730
H1128       H  0.23556240  0.84505643  0.48883366     0.14300
C1129       C  0.08273999  0.71028022  0.46751824    -0.15300
C1130       C  0.08945288  0.74000271  0.47933359    -0.30470
H1131       H  0.07914714  0.70810237  0.44003077     0.13730
H1132       H  0.09645024  0.74188714  0.50596566     0.14300
C1133       C  0.08860915  0.99198272  0.44553743    -0.15300
C1134       C  0.07421919  0.96644642  0.46295237    -0.30470
H1135       H  0.10530188  0.48599900  0.42224150     0.13730
H1136       H  0.05964780  0.96983713  0.48662357     0.14300
C1137       C  0.37921192  0.74558252  0.43371196    -0.15300
C1138       C  0.37093466  0.71623310  0.42254003    -0.30470
H1139       H  0.38467013  0.74804186  0.46073414     0.13730
H1140       H  0.36213282  0.71443797  0.39656501     0.14300
C1141       C  0.38878084  0.99217657  0.42696776    -0.15300
C1142       C  0.37829128  0.96585261  0.44655629    -0.30470
H1143       H  0.40056533  0.48749086  0.40440936     0.13730
H1144       H  0.36673704  0.97042372  0.47172239     0.14300
C1145       C  0.99159073  0.58309465  0.50713485    -0.15300
C1146       C  0.47752486  0.60436421  0.48612547    -0.30470
H1147       H  0.97844590  0.56169876  0.51705267     0.13730
H1148       H  0.49192670  0.62485308  0.47572839     0.14300
C1149       C  0.23874761  0.63068778  0.43301969    -0.15300
C1150       C  0.22018310  0.64392486  0.45777199    -0.30470
H1151       H  0.22688917  0.61565174  0.41487844     0.13730
H1152       H  0.23101357  0.65879939  0.47671009     0.14300
C1153       C  0.17169817  0.53847192  0.58961581    -0.15300
C1154       C  0.14522732  0.52927528  0.57330488    -0.30470
H1155       H  0.18687499  0.55781129  0.57798234     0.13730
H1156       H  0.12815214  0.51236211  0.58636310     0.14300
C1157       C  0.31157824  0.55121257  0.57085840    -0.15300
C1158       C  0.33084117  0.53821797  0.54630569    -0.30470
H1159       H  0.30256787  0.57587354  0.56732438     0.13730
H1160       H  0.34146080  0.51428620  0.55051541     0.14300
C1161       C  0.31575144  0.68914634  0.56069978    -0.15300
C1162       C  0.32712026  0.71318155  0.57914074    -0.30470
H1163       H  0.29168047  0.67934591  0.56737623     0.13730
H1164       H  0.34997728  0.72489790  0.57109153     0.14300
C1165       C  0.14199282  0.68496462  0.58980231    -0.15300
C1166       C  0.16520688  0.70446939  0.57581766    -0.30470
H1167       H  0.13632796  0.68388428  0.61755979     0.13730
H1168       H  0.16877841  0.70750896  0.54781093     0.14300
C1169       C  0.25998774  0.86730116  0.62800322    -0.15300
C1170       C  0.23373126  0.88635745  0.63238038    -0.30470
H1171       H  0.28458787  0.87660568  0.62932610     0.13730
H1172       H  0.20920666  0.87714703  0.63000532     0.14300
C1173       C  0.22644089  0.63888265  0.70900047    -0.15300
C1174       C  0.24702449  0.61378809  0.71183476    -0.30470
H1175       H  0.20034805  0.63495660  0.70767298     0.13730
H1176       H  0.27318260  0.61771214  0.71220747     0.14300
C1177       C  0.08888315  0.97757575  0.70589139    -0.15300
C1178       C  0.11755408  0.96308893  0.71368104    -0.30470
H1179       H  0.08866539  0.99482445  0.68382053     0.13730
H1180       H  0.11863482  0.94502319  0.73486456     0.14300
C1181       C  0.37063474  0.98483087  0.69820154    -0.15300
C1182       C  0.34187964  0.00052686  0.70434110    -0.30470
H1183       H  0.37124650  0.96488149  0.68081468     0.13730
H1184       H  0.34116113  0.01984468  0.72252470     0.14300
C1185       C  0.08865774  0.52315664  0.85647498    -0.15300
C1186       C  0.06634898  0.53597465  0.83559501    -0.30470
H1187       H  0.09726859  0.49849676  0.85341527     0.13730
H1188       H  0.06123165  0.06259496  0.83351192     0.14300
C1189       C  0.41243035  0.52829987  0.82543360    -0.15300
C1190       C  0.42712027  0.55131808  0.84250000    -0.30470
H1191       H  0.43197076  0.99955640  0.85383847     0.13730
H1192       H  0.44941426  0.56241304  0.83153282     0.14300
C1193       C  0.39431715  0.77333502  0.66290307    -0.15300
C1194       C  0.36958172  0.78291659  0.68417251    -0.30470
H1195       H  0.38810901  0.76311011  0.63858255     0.13730
H1196       H  0.37460018  0.79126177  0.70966543     0.14300
C1197       C  0.11395370  0.76365212  0.68023773    -0.15300
C1198       C  0.14382560  0.76837741  0.69303815    -0.30470
H1199       H  0.11220845  0.75793525  0.65320649     0.13730
H1200       H  0.14601672  0.77054123  0.72075921     0.14300
C1201       C  0.48778882  0.86221668  0.71868113    -0.15300
C1202       C  0.46600237  0.87719780  0.73905525    -0.30470
H1203       H  0.01402467  0.88262638  0.72390246     0.13730
H1204       H  0.44751427  0.86394081  0.75474312     0.14300
C1205       C  0.53147816  0.62645948  0.69853498    -0.15300
C1206       C  0.52099121  0.61037198  0.72739281    -0.30470
H1207       H  0.02362318  0.61919372  0.66836311     0.13730
H1208       H  0.51471364  0.62363499  0.75052810     0.14300
C1209       C  0.43372267  0.69965721  0.81753406    -0.15300
C1210       C  0.42229831  0.71480052  0.78897971    -0.30470
H1211       H  0.45979382  0.69537432  0.81911616     0.13730
H1212       H  0.39643671  0.72012672  0.78740583     0.14300
C1213       C  0.08982396  0.71048086  0.81160322    -0.15300
C1214       C  0.08061347  0.68187660  0.82614807    -0.30470
H1215       H  0.11215638  0.72176764  0.81910912     0.13730
H1216       H  0.05682887  0.67200576  0.82131595     0.14300
O1217       O  0.98828136  0.16986787  0.69520467    -0.79760
O1218       O  0.97490435  0.31483636  0.73753655    -0.64440
O1219       O  0.99406445  0.23580484  0.69544347    -1.11050
C1220       C  0.57545096  0.23842087  0.79059620     1.07130
O1221       O  0.52743959  0.32377963  0.72466472    -0.77650
O1222       O  0.58299047  0.28535383  0.72670911    -0.65230
Ni1223     Ni  0.95922533  0.20583865  0.69315855     1.34870
C1224       C  0.58529796  0.26509702  0.70299876     0.85870
O1225       O  0.94903763  0.28633652  0.68477256    -0.78190
O1226       O  0.92530264  0.23803128  0.68817874    -0.88470
C1227       C  0.99842223  0.33445872  0.73381178     0.85440
O1228       O  0.95258424  0.20340683  0.74253756    -0.66670
O1229       O  0.56694640  0.26804817  0.79287592    -0.85960
C1230       C  0.94361667  0.22724455  0.76037006     0.86270
C1231       C  0.92489380  0.26816531  0.68024068     1.07840
H1232       H  0.50779315  0.25741597  0.77435840     0.39640
O1233       O  0.51746158  0.26297846  0.75167837    -1.08620
O1234       O  0.56293752  0.24454882  0.69882559    -0.65270
Ni1235     Ni  0.53293364  0.22451169  0.73347323     1.26350
O1236       O  0.94895080  0.25651370  0.74991280    -0.65500
O1237       O  0.56731465  0.22034157  0.76620088    -0.77790
C1238       C  0.52642148  0.16087913  0.71481784     0.85660
O1239       O  0.54605724  0.18425102  0.71553369    -0.64960
Ni1240     Ni  0.54751852  0.29586134  0.75863908     1.27450
Ni1241     Ni  0.98201238  0.27487129  0.71699780     1.26060
H1242       H  0.00361988  0.24057378  0.67249817     0.40200
O1243       O  0.50441121  0.42022488  0.76787372    -0.79760
O1244       O  0.52748526  0.05533551  0.73727958    -0.64440
O1245       O  0.49186131  0.48335377  0.77871652    -1.11050
C1246       C  0.90054046  0.48870449  0.70981515     1.07130
O1247       O  0.97228273  0.08096028  0.72439707    -0.77650
O1248       O  0.93258679  0.04667559  0.76767343    -0.65230
Ni1249     Ni  0.52280827  0.45268052  0.79448135     1.34870
C1250       C  0.92469301  0.52396850  0.78817394     0.85870
O1251       O  0.55205790  0.01340852  0.78415484    -0.78190
O1252       O  0.54168436  0.48496252  0.82176191    -0.88470
C1253       C  0.00336409  0.08220568  0.72256879     0.85440
O1254       O  0.55819729  0.45899021  0.76020077    -0.66670
O1255       O  0.90422208  0.51899643  0.71398715    -0.85960
C1256       C  0.55910021  0.47541232  0.73163492     0.86270
C1257       C  0.54896608  0.51423417  0.81270987     1.07840
H1258       H  0.97962019  0.50866280  0.69912227     0.39640
O1259       O  0.97177749  0.51371496  0.72219129    -1.08620
O1260       O  0.92686460  0.49460854  0.77949357    -0.65270
Ni1261     Ni  0.95799840  0.47523100  0.74699210     1.26350
O1262       O  0.53583481  0.49404758  0.72303759    -0.65500
O1263       O  0.92291061  0.46789002  0.71650413    -0.77790
C1264       C  0.97418111  0.41434775  0.76527120     0.85660
O1265       O  0.95058337  0.43405331  0.76958775    -0.64960
Ni1266     Ni  0.94003857  0.04763097  0.71894462     1.27450
Ni1267     Ni  0.50755067  0.51911550  0.75249609     1.26060
H1268       H  0.98163635  0.49407394  0.79852792     0.40200
O1269       O  0.77261759  0.17386320  0.69034678    -0.79760
O1270       O  0.77904830  0.31386592  0.61784047    -0.64440
O1271       O  0.76753198  0.23961704  0.67778877    -1.11050
C1272       C  0.68787153  0.22049754  0.59495772     1.07130
O1273       O  0.72543567  0.32072444  0.62519759    -0.77650
O1274       O  0.67526404  0.27798869  0.63760530    -0.65230
Ni1275     Ni  0.80220068  0.20939155  0.68225597     1.34870
C1276       C  0.67556586  0.26606029  0.66841903     0.85870
O1277       O  0.81204786  0.29039116  0.67270687    -0.78190
O1278       O  0.83608040  0.24181138  0.67733434    -0.88470
C1279       C  0.75411059  0.33216019  0.62098807     0.85440
O1280       O  0.80461336  0.20225772  0.63350929    -0.66670
O1281       O  0.69519112  0.24796405  0.58072408    -0.85960
C1282       C  0.81255443  0.22387728  0.61030301     0.86270
C1283       C  0.83683523  0.27256492  0.67859939     1.07840
H1284       H  0.75268678  0.24766920  0.60126766     0.39640
O1285       O  0.74295989  0.25800322  0.62111532    -1.08620
O1286       O  0.70065866  0.25143003  0.67981243    -0.65270
Ni1287     Ni  0.73096384  0.22500762  0.65314789     1.26350
O1288       O  0.80800482  0.25407045  0.61508886    -0.65500
O1289       O  0.69604404  0.21068841  0.62539370    -0.77790
C1290       C  0.74190190  0.17021058  0.69517504     0.85660
O1291       O  0.72125362  0.19144754  0.68628955    -0.64960
Ni1292     Ni  0.71016877  0.28438579  0.60290205     1.27450
Ni1293     Ni  0.77665611  0.27548099  0.64663099     1.26060
H1294       H  0.76056815  0.24702274  0.70029632     0.40200
O1295       O  0.70926603  0.07564546  0.69933137    -0.79760
O1296       O  0.70827376  0.43582597  0.64116224    -0.64440
O1297       O  0.71799975  0.51112932  0.69183363    -1.11050
C1298       C  0.79779846  0.52980714  0.59909587     1.07130
O1299       O  0.76103414  0.42851837  0.64924419    -0.77650
O1300       O  0.81088973  0.47127723  0.65757382    -0.65230
Ni1301     Ni  0.68242761  0.03985824  0.68970480     1.34870
C1302       C  0.81074985  0.49098788  0.68177608     0.85870
O1303       O  0.67443133  0.45909739  0.69661777    -0.78190
O1304       O  0.64826611  0.50579075  0.69120161    -0.88470
C1305       C  0.73368849  0.41807424  0.64026271     0.85440
O1306       O  0.68602001  0.04951007  0.64094096    -0.66670
O1307       O  0.79835254  0.49918921  0.59545283    -0.85960
C1308       C  0.67845872  0.52611872  0.62539866     0.86270
C1309       C  0.64856372  0.47596037  0.70041855     1.07840
H1310       H  0.73607110  0.49761715  0.61422198     0.39640
O1311       O  0.74486273  0.49057302  0.63608144    -1.08620
O1312       O  0.78667175  0.50982953  0.68800775    -0.65270
Ni1313     Ni  0.75223574  0.52773295  0.65983488     1.26350
O1314       O  0.68074499  0.49567832  0.63324944    -0.65500
O1315       O  0.78755745  0.04492500  0.62227172    -0.77790
C1316       C  0.73941079  0.08251062  0.69672923     0.85660
O1317       O  0.76073460  0.06528150  0.68180053    -0.64960
Ni1318     Ni  0.78005410  0.46386269  0.62287261     1.27450
Ni1319     Ni  0.71035586  0.47403098  0.66605871     1.26060
H1320       H  0.72629270  0.50496652  0.71430656     0.40200
O1321       O  0.93310181  0.13597474  0.47101877    -0.79760
O1322       O  0.79185614  0.14046543  0.45110667    -0.64440
O1323       O  0.87192607  0.12086893  0.49109526    -1.11050
C1324       C  0.87732335  0.02563156  0.43313498     1.07130
O1325       O  0.77902169  0.09015807  0.43770507    -0.77650
O1326       O  0.81404114  0.06225105  0.49144136    -0.65230
Ni1327     Ni  0.90065162  0.15363128  0.50197118     1.34870
C1328       C  0.83891568  0.05458447  0.50883099     0.85870
O1329       O  0.82116908  0.16274763  0.50625427    -0.78190
O1330       O  0.86798125  0.17148511  0.53324307    -0.88470
C1331       C  0.77255319  0.12004306  0.43972587     0.85440
O1332       O  0.89044339  0.18657290  0.46812522    -0.66670
O1333       O  0.84755401  0.02744583  0.44314989    -0.85960
C1334       C  0.87067078  0.18779529  0.44383371     0.86270
C1335       C  0.83699108  0.17425808  0.53091570     1.07840
H1336       H  0.84814931  0.10582412  0.41632655     0.39640
O1337       O  0.84463116  0.09729467  0.43987136    -1.08620
O1338       O  0.86798656  0.05731220  0.49631482    -0.65270
Ni1339     Ni  0.88507728  0.08732593  0.46042159     1.26350
O1340       O  0.85038885  0.16516079  0.43945055    -0.65500
O1341       O  0.89542078  0.05084176  0.43122758    -0.77790
C1342       C  0.94469918  0.10783722  0.47737911     0.85660
O1343       O  0.92654215  0.08300281  0.47991836    -0.64960
Ni1344     Ni  0.81534818  0.06159915  0.44188994     1.27450
Ni1345     Ni  0.83241442  0.13145170  0.47146350     1.26060
H1346       H  0.86627887  0.11107965  0.51365072     0.40200
O1347       O  0.68858444  0.09543045  0.46255415    -0.79760
O1348       O  0.54450567  0.06728791  0.52245211    -0.64440
O1349       O  0.62127941  0.09244931  0.47053702    -1.11050
C1350       C  0.62583698  0.16270570  0.56513740     1.07130
O1351       O  0.53155028  0.11984637  0.52069571    -0.77650
O1352       O  0.57031836  0.17511273  0.51697372    -0.65230
Ni1353     Ni  0.65562579  0.06229901  0.46324986     1.34870
C1354       C  0.58588602  0.17904404  0.48791331     0.85870
O1355       O  0.57504454  0.04268620  0.46630511    -0.78190
O1356       O  0.62673422  0.02578236  0.46005886    -0.88470
C1357       C  0.52385875  0.09007215  0.51836111     0.85440
O1358       O  0.65974895  0.05426063  0.51201574    -0.66670
O1359       O  0.59759550  0.15302878  0.57573249    -0.85960
C1360       C  0.63756585  0.04339223  0.53336022     0.86270
C1361       C  0.59620091  0.02162743  0.45721733     1.07840
H1362       H  0.60517679  0.09767685  0.54844225     0.39640
O1363       O  0.59575121  0.10836882  0.52850232    -1.08620
O1364       O  0.60392513  0.15672190  0.47582910    -0.65270
Ni1365     Ni  0.63026557  0.12607016  0.50177419     1.26350
O1366       O  0.60728201  0.04490646  0.52678869    -0.65500
O1367       O  0.63861304  0.15737266  0.53513792    -0.77790
C1368       C  0.68945581  0.12623391  0.46375539     0.85660
O1369       O  0.66576232  0.14295312  0.47463453    -0.64960
Ni1370     Ni  0.56470121  0.13671971  0.54783809     1.27450
Ni1371     Ni  0.58426518  0.07640297  0.49733133     1.26060
H1372       H  0.61453835  0.10158689  0.44850879     0.40200
O1373       O  0.68725159  0.36593935  0.46590280    -0.79760
O1374       O  0.54511953  0.37506669  0.40755636    -0.64440
O1375       O  0.62140475  0.36069308  0.45854422    -1.11050
C1376       C  0.63524038  0.27988993  0.37407942     1.07130
O1377       O  0.53555212  0.32277265  0.41926347    -0.77650
O1378       O  0.57703515  0.27064985  0.42805393    -0.65230
Ni1379     Ni  0.65180800  0.39527896  0.45880397     1.34870
C1380       C  0.59304686  0.26964545  0.45549397     0.85870
O1381       O  0.57115233  0.40753277  0.45850584    -0.78190
O1382       O  0.62024317  0.42988736  0.45377615    -0.88470
C1383       C  0.52546156  0.35155631  0.41282279     0.85440
O1384       O  0.65862910  0.39402538  0.40977269    -0.66670
O1385       O  0.60586538  0.28570259  0.36564579    -0.85960
C1386       C  0.63692645  0.40103951  0.38811506     0.86270
C1387       C  0.58958886  0.43205555  0.45952057     1.07840
H1388       H  0.60824062  0.34423146  0.38356652     0.39640
O1389       O  0.59933108  0.33564717  0.40554933    -1.08620
O1390       O  0.61167087  0.29290575  0.46289987    -0.65270
Ni1391     Ni  0.63511273  0.32406376  0.43151026     1.26350
O1392       O  0.60638558  0.39936249  0.39637347    -0.65500
O1393       O  0.64776085  0.28965743  0.40155260    -0.77790
C1394       C  0.69301347  0.33573690  0.46605097     0.85660
O1395       O  0.67277274  0.31487450  0.45721777    -0.64960
Ni1396     Ni  0.57068518  0.30397185  0.39263385     1.27450
Ni1397     Ni  0.58423286  0.37081637  0.43195905     1.26060
H1398       H  0.61469766  0.35373498  0.48197737     0.40200
O1399       O  0.93261752  0.33536474  0.37132283    -0.79760
O1400       O  0.79640916  0.31223021  0.42088566    -0.64440
O1401       O  0.86704790  0.34423672  0.36517377    -1.11050
C1402       C  0.86812422  0.43476544  0.43228998     1.07130
O1403       O  0.77575231  0.36008264  0.43571777    -0.77650
O1404       O  0.80254591  0.40016165  0.38260798    -0.65230
Ni1405     Ni  0.89861215  0.31569349  0.34696495     1.34870
C1406       C  0.82442427  0.40942599  0.35997120     0.85870
O1407       O  0.82265621  0.29442678  0.36046293    -0.78190
O1408       O  0.86548701  0.29576605  0.32184164    -0.88470
C1409       C  0.77419929  0.32929505  0.43452770     0.85440
O1410       O  0.89491741  0.27995718  0.38073555    -0.66670
O1411       O  0.83753160  0.43033959  0.43083359    -0.85960
C1412       C  0.87819049  0.27631758  0.40902331     0.86270
C1413       C  0.83677699  0.28651356  0.33181850     1.07840
H1414       H  0.84977114  0.35352257  0.44469508     0.39640
O1415       O  0.84238881  0.36229032  0.42277509    -1.08620
O1416       O  0.85487980  0.40730041  0.36510096    -0.65270
Ni1417     Ni  0.87893176  0.37766986  0.39474811     1.26350
O1418       O  0.85796114  0.29750938  0.41947673    -0.65500
O1419       O  0.88883547  0.41299204  0.42392925    -0.77790
C1420       C  0.93924014  0.36554711  0.37203249     0.85660
O1421       O  0.91755597  0.38717625  0.36775371    -0.64960
Ni1422     Ni  0.80875505  0.39329549  0.43112418     1.27450
Ni1423     Ni  0.83209170  0.32759681  0.39264353     1.26060
H1424       H  0.85763586  0.35412664  0.34478537     0.40200
O1425       O  0.81163900  0.14224266  0.88899702    -0.79760
O1426       O  0.94647455  0.15149463  0.93396000    -0.64440
O1427       O  0.87567056  0.13030406  0.88130347    -1.11050
C1428       C  0.86528351  0.03240078  0.94520850     1.07130
O1429       O  0.96126320  0.10126193  0.94994626    -0.77650
O1430       O  0.93567069  0.06988525  0.89636528    -0.65230
Ni1431     Ni  0.84750933  0.16342457  0.86510562     1.34870
C1432       C  0.91500334  0.06321746  0.87411725     0.85870
O1433       O  0.92546819  0.17487066  0.87380170    -0.78190
O1434       O  0.88301641  0.18411524  0.83942620    -0.88470
C1435       C  0.96622083  0.13164013  0.94733027     0.85440
O1436       O  0.85051291  0.19474173  0.90054794    -0.66670
O1437       O  0.89606760  0.03607431  0.94405405    -0.85960
C1438       C  0.86649658  0.19445948  0.92801514     0.86270
C1439       C  0.91303665  0.18697073  0.84619231     1.07840
H1440       H  0.88742482  0.11267849  0.96019761     0.39640
O1441       O  0.89554620  0.10517358  0.93811427    -1.08620
O1442       O  0.88425936  0.06626701  0.87965183    -0.65270
Ni1443     Ni  0.85983322  0.09444712  0.91039425     1.26350
O1444       O  0.88668193  0.17196340  0.93553114    -0.65500
O1445       O  0.84609599  0.05617674  0.93845474    -0.77790
C1446       C  0.80322770  0.11391292  0.88132883     0.85660
O1447       O  0.82271084  0.08988578  0.88341535    -0.64960
Ni1448     Ni  0.92659243  0.07123983  0.94516965     1.27450
Ni1449     Ni  0.91065104  0.14133751  0.90744644     1.26060
H1450       H  0.88510891  0.12182027  0.86024712     0.40200
O1451       O  0.55470179  0.10715529  0.89943713    -0.79760
O1452       O  0.69571039  0.07008470  0.88862689    -0.64440
O1453       O  0.61338051  0.09699293  0.92466084    -1.11050
C1454       C  0.63214397  0.18224235  0.83930521     1.07130
O1455       O  0.70908291  0.12021454  0.89973791    -0.77650
O1456       O  0.67777059  0.17966767  0.89961075    -0.65230
Ni1457     Ni  0.57577624  0.07154345  0.92235050     1.34870
C1458       C  0.65755768  0.18130040  0.92520093     0.85870
O1459       O  0.65128746  0.04042835  0.93341180    -0.78190
O1460       O  0.59683487  0.03470114  0.94397135    -0.88470
C1461       C  0.71722710  0.09163101  0.89158371     0.85440
O1462       O  0.58252043  0.05328550  0.87823605    -0.66670
O1463       O  0.66101845  0.17098778  0.83448605    -0.85960
C1464       C  0.60817604  0.04814098  0.85999773     0.86270
C1465       C  0.62621932  0.02416265  0.94495766     1.07840
H1466       H  0.64386909  0.11304226  0.85345184     0.39640
O1467       O  0.65012345  0.11928172  0.87602226    -1.08620
O1468       O  0.63569220  0.15986677  0.93140756    -0.65270
Ni1469     Ni  0.61293180  0.13697381  0.89702324     1.26350
O1470       O  0.63622636  0.05733545  0.86795489    -0.65500
O1471       O  0.61354822  0.17497031  0.86605261    -0.77790
C1472       C  0.54972748  0.13367058  0.91414543     0.85660
O1473       O  0.57359766  0.15165680  0.91900574    -0.64960
Ni1474     Ni  0.68590399  0.14620139  0.86709852     1.27450
Ni1475     Ni  0.65288515  0.08065888  0.90548778     1.26060
H1476       H  0.61634088  0.10156344  0.94863107     0.40200
O1477       O  0.55260174  0.34971568  0.95895407    -0.79760
O1478       O  0.69791952  0.37629135  0.99977806    -0.64440
O1479       O  0.62034911  0.35459747  0.95561247    -1.11050
C1480       C  0.62679960  0.26749929  0.04007480     1.07130
O1481       O  0.71420155  0.32688876  0.98620533    -0.77650
O1482       O  0.67928604  0.26959462  0.98235314    -0.65230
Ni1483     Ni  0.58441698  0.38380298  0.95389756     1.34870
C1484       C  0.66087601  0.26858684  0.95684814     0.85870
O1485       O  0.66414142  0.40794127  0.95154048    -0.78190
O1486       O  0.61166433  0.42155336  0.94672334    -0.88470
C1487       C  0.72038523  0.35645002  0.99141424     0.85440
O1488       O  0.58179837  0.38889494  0.00271209    -0.66670
O1489       O  0.65532045  0.27726635  0.04646208    -0.85960
C1490       C  0.60423895  0.39561819  0.02286647     0.86270
C1491       C  0.64191142  0.42839145  0.94426767     1.07840
H1492       H  0.64168283  0.33636246  0.02923784     0.39640
O1493       O  0.65009378  0.33021303  0.00674409    -1.08620
O1494       O  0.63998644  0.29072096  0.95043959    -0.65270
Ni1495     Ni  0.61463806  0.31512094  0.98379789     1.26350
O1496       O  0.63460207  0.39230301  0.01489305    -0.65500
O1497       O  0.61050303  0.27724022  0.01409727    -0.77790
C1498       C  0.55226532  0.31893656  0.95780259     0.85660
O1499       O  0.57739378  0.30152135  0.96126538    -0.64960
Ni1500     Ni  0.68466138  0.30181965  0.01625281     1.27450
Ni1501     Ni  0.65783622  0.36840166  0.97889667     1.26060
H1502       H  0.62693063  0.34953364  0.93215610     0.40200
O1503       O  0.80958510  0.33701085  0.00804651    -0.79760
O1504       O  0.95031528  0.31430697  0.97079941    -0.64440
O1505       O  0.87362650  0.33838244  0.02001462    -1.11050
C1506       C  0.88167933  0.44158435  0.96979970     1.07130
O1507       O  0.96509793  0.36176126  0.94512893    -0.77650
O1508       O  0.94397752  0.38673385  0.00804659    -0.65230
Ni1509     Ni  0.83997486  0.30869273  0.03078971     1.34870
C1510       C  0.92364933  0.39407592  0.03243677     0.85870
O1511       O  0.91896026  0.28973716  0.02818675    -0.78190
O1512       O  0.86960297  0.28035259  0.05496083    -0.88470
C1513       C  0.96909653  0.33162714  0.95098927     0.85440
O1514       O  0.84387893  0.28113549  0.99186658    -0.66670
O1515       O  0.91127269  0.43296086  0.97163328    -0.85960
C1516       C  0.86550701  0.27899343  0.96756133     0.86270
C1517       C  0.90032075  0.27520835  0.05144506     1.07840
H1518       H  0.89426948  0.35838845  0.94354462     0.39640
O1519       O  0.90163159  0.36431048  0.96581272    -1.08620
O1520       O  0.89293216  0.39796821  0.02797754    -0.65270
Ni1521     Ni  0.86557600  0.37810775  0.99450056     1.26350
O1522       O  0.89007288  0.29771920  0.96440577    -0.65500
O1523       O  0.85919251  0.42036010  0.97023959    -0.77790
C1524       C  0.80391355  0.36659500  0.01509492     0.85660
O1525       O  0.82677845  0.38581831  0.02158083    -0.64960
Ni1526     Ni  0.93593218  0.39488718  0.96010609     1.27450
Ni1527     Ni  0.91120340  0.32583622  0.99545223     1.26060
H1528       H  0.88056363  0.34359339  0.04266596     0.40200
O1529       O  0.75508127  0.29351249  0.18122739    -0.79760
O1530       O  0.77617008  0.15777502  0.26163869    -0.64440
O1531       O  0.75324643  0.22740714  0.19900783    -1.11050
C1532       C  0.67723370  0.24563362  0.29421612     1.07130
O1533       O  0.72353028  0.14539384  0.26217820    -0.77650
O1534       O  0.66883108  0.18332026  0.25296273    -0.65230
Ni1535     Ni  0.78452068  0.25752275  0.17918125     1.34870
C1536       C  0.66574497  0.19701556  0.22319323     0.85870
O1537       O  0.80394735  0.17920289  0.20158230    -0.78190
O1538       O  0.81816419  0.22574719  0.17358894    -0.88470
C1539       C  0.75352071  0.13684815  0.26194217     0.85440
O1540       O  0.80081597  0.26792124  0.22265764    -0.66670
O1541       O  0.68554502  0.21775948  0.30650958    -0.85960
C1542       C  0.80715785  0.25036770  0.24940718     0.86270
C1543       C  0.82393036  0.19656183  0.18289911     1.07840
H1544       H  0.74427602  0.22130701  0.27861865     0.39640
O1545       O  0.73421855  0.21027100  0.26034392    -1.08620
O1546       O  0.68726461  0.21604644  0.20922035    -0.65270
Ni1547     Ni  0.71881825  0.24280346  0.23022112     1.26350
O1548       O  0.79816481  0.22086348  0.25434063    -0.65500
O1549       O  0.68580106  0.25690557  0.26375215    -0.77790
C1550       C  0.72477729  0.29830847  0.18670666     0.85660
O1551       O  0.70544582  0.27685948  0.19954299    -0.64960
Ni1552     Ni  0.70459123  0.18191870  0.28397117     1.27450
Ni1553     Ni  0.76806170  0.19397661  0.23071629     1.26060
H1554       H  0.74354946  0.21709509  0.18001292     0.40200
O1555       O  0.70610718  0.04079918  0.23726000    -0.79760
O1556       O  0.69478278  0.39700510  0.23372462    -0.64440
O1557       O  0.71478910  0.98033291  0.26346249    -1.11050
C1558       C  0.81633713  0.97560010  0.20733661     1.07130
O1559       O  0.74357414  0.38252936  0.21149785    -0.77650
O1560       O  0.77005508  0.41493332  0.26534417    -0.65230
Ni1561     Ni  0.68228521  0.01196649  0.26914472     1.34870
C1562       C  0.77590452  0.43906567  0.28356694     0.85870
O1563       O  0.66990866  0.43258709  0.28427177    -0.78190
O1564       O  0.65854313  0.98342042  0.30174568    -0.88470
C1565       C  0.71340345  0.37736162  0.21833620     0.85440
O1566       O  0.65279201  0.00121976  0.23430147    -0.66670
O1567       O  0.81081078  0.44571330  0.21823889    -0.85960
C1568       C  0.65294771  0.97866582  0.21312055     0.86270
C1569       C  0.65545365  0.45194975  0.30504454     1.07840
H1570       H  0.73283445  0.45076690  0.19190713     0.39640
O1571       O  0.74033534  0.44746631  0.21517581    -1.08620
O1572       O  0.77699811  0.96915906  0.27172224    -0.65270
Ni1573     Ni  0.75244378  0.98872867  0.23383242     1.26350
O1574       O  0.67265884  0.45336442  0.21504096    -0.65500
O1575       O  0.79224062  0.99516800  0.20515373    -0.77790
C1576       C  0.73455574  0.05076902  0.24340688     0.85660
O1577       O  0.75743448  0.03097995  0.25095452    -0.64960
Ni1578     Ni  0.77461533  0.41625746  0.21615606     1.27450
Ni1579     Ni  0.70391917  0.43895332  0.24860650     1.26060
H1580       H  0.72169746  0.97617413  0.28682049     0.40200
O1581       O  0.97770893  0.28509622  0.21069181    -0.79760
O1582       O  0.97321340  0.15048971  0.13705708    -0.64440
O1583       O  0.98407396  0.22102237  0.19562247    -1.11050
C1584       C  0.57823227  0.23490949  0.11735685     1.07130
O1585       O  0.52433123  0.13765622  0.15444391    -0.77650
O1586       O  0.57699163  0.17509769  0.17013639    -0.65230
Ni1587     Ni  0.94895366  0.25135695  0.19917021     1.34870
C1588       C  0.57646321  0.19285602  0.19609748     0.85870
O1589       O  0.93674249  0.17247618  0.18994655    -0.78190
O1590       O  0.91444240  0.22144460  0.19019366    -0.88470
C1591       C  0.99660718  0.13024038  0.13815991     0.85440
O1592       O  0.95474004  0.26297324  0.15102495    -0.66670
O1593       O  0.57339888  0.20577893  0.10913963    -0.85960
C1594       C  0.95026265  0.24390089  0.12676799     0.86270
C1595       C  0.91192943  0.19078356  0.19242454     1.07840
H1596       H  0.51032427  0.21108528  0.12127973     0.39640
O1597       O  0.51618396  0.20169072  0.14348833    -1.08620
O1598       O  0.55319865  0.21265256  0.20250848    -0.65270
Ni1599     Ni  0.52521669  0.23641042  0.17079709     1.26350
O1600       O  0.95167809  0.21297101  0.13151276    -0.65500
O1601       O  0.56306760  0.24881465  0.14227068    -0.77790
C1602       C  0.00805488  0.29104116  0.20956824     0.85660
O1603       O  0.53230178  0.27311132  0.19735835    -0.64960
Ni1604     Ni  0.54899294  0.17182307  0.13205288     1.27450
Ni1605     Ni  0.97622135  0.18661020  0.16558356     1.26060
H1606       H  0.98927003  0.21233240  0.21837190     0.40200
O1607       O  0.50949003  0.03483762  0.14296294    -0.79760
O1608       O  0.53457649  0.39792798  0.16983873    -0.64440
O1609       O  0.50427625  0.97253751  0.12695468    -1.11050
C1610       C  0.90862210  0.96484957  0.19892417     1.07130
O1611       O  0.98547663  0.37490498  0.18917611    -0.77650
O1612       O  0.94888011  0.40577204  0.13885754    -0.65230
Ni1613     Ni  0.53342685  0.00630185  0.11374373     1.34870
C1614       C  0.93831794  0.42921982  0.11985513     0.85870
O1615       O  0.55251656  0.43246601  0.11222045    -0.78190
O1616       O  0.55442759  0.48160578  0.08422196    -0.88470
C1617       C  0.01646040  0.37340302  0.18561950     0.85440
O1618       O  0.56625885  0.00033521  0.14751651    -0.66670
O1619       O  0.91288703  0.43423147  0.19113378    -0.85960
C1620       C  0.56731957  0.48294118  0.17236527     0.86270
C1621       C  0.56221308  0.45163511  0.08686606     1.07840
H1622       H  0.98999046  0.44600882  0.20540590     0.39640
O1623       O  0.98221449  0.44116346  0.18297103    -1.08620
O1624       O  0.93768894  0.95958516  0.12954023    -0.65270
Ni1625     Ni  0.96672789  0.98085627  0.15988477     1.26350
O1626       O  0.54942097  0.45799532  0.17738321    -0.65500
O1627       O  0.93054649  0.98635002  0.19307285    -0.77790
C1628       C  0.97743116  0.04330654  0.13774593     0.85660
O1629       O  0.95542369  0.02178147  0.13853083    -0.64960
Ni1630     Ni  0.95139497  0.40692676  0.18807130     1.27450
Ni1631     Ni  0.51893392  0.43701599  0.14872738     1.26060
H1632       H  0.99166044  0.96714718  0.10507665     0.40200
C1633       C  0.99391810  0.09805983  0.12517081    -0.15300
C1634       C  0.96956058  0.07795272  0.13525085    -0.30470
H1635       H  0.01652074  0.08825120  0.11411376     0.13730
H1636       H  0.94684013  0.08680664  0.14688161     0.14300
C1637       C  0.01717842  0.32315385  0.21977482    -0.15300
C1638       C  0.03227335  0.34264905  0.19565798    -0.30470
H1639       H  0.00028628  0.33412658  0.23835314     0.13730
H1640       H  0.55044037  0.33428217  0.17370325     0.14300
C1641       C  0.62352517  0.47232997  0.19091887    -0.15300
C1642       C  0.59468606  0.48788278  0.19539684    -0.30470
H1643       H  0.62620644  0.45498051  0.17064787     0.13730
H1644       H  0.58876001  0.99085401  0.22373006     0.14300
C1645       C  0.85072768  0.98567372  0.19770219    -0.15300
C1646       C  0.87584063  0.97196321  0.21497620    -0.30470
H1647       H  0.85547995  0.00010502  0.17389602     0.13730
H1648       H  0.86852387  0.45548029  0.23694423     0.14300
C1649       C  0.87861802  0.17725053  0.19700280    -0.15300
C1650       C  0.85679943  0.18460902  0.17272403    -0.30470
H1651       H  0.87001288  0.17077671  0.22334783     0.13730
H1652       H  0.86634201  0.19347820  0.14739327     0.14300
C1653       C  0.60532958  0.19193001  0.21830727    -0.15300
C1654       C  0.63598747  0.19105376  0.20373645    -0.30470
H1655       H  0.60183715  0.19668033  0.24563789     0.13730
H1656       H  0.63904978  0.19031219  0.17570644     0.14300
C1657       C  0.76069185  0.10226448  0.25800816    -0.15300
C1658       C  0.73927441  0.08567396  0.24050011    -0.30470
H1659       H  0.78042896  0.09038267  0.27155858     0.13730
H1660       H  0.72031702  0.09887597  0.22682060     0.14300
C1661       C  0.71363905  0.33161080  0.18170088    -0.15300
C1662       C  0.70024569  0.34617089  0.20912553    -0.30470
H1663       H  0.72753736  0.34630825  0.16231573     0.13730
H1664       H  0.68652552  0.33226831  0.22927426     0.14300
C1665       C  0.93639604  0.39909597  0.06671634    -0.15300
C1666       C  0.92456391  0.42265596  0.08642385    -0.30470
H1667       H  0.95736596  0.38490211  0.07478266     0.13730
H1668       H  0.90578268  0.43891436  0.07669350     0.14300
C1669       C  0.94223534  0.25901668  0.09270399    -0.15300
C1670       C  0.91455464  0.25212561  0.07723599    -0.30470
H1671       H  0.95553151  0.28075530  0.08408552     0.13730
H1672       H  0.89904345  0.23292190  0.08862489     0.14300
C1673       C  0.58178593  0.43887605  0.05737912    -0.15300
C1674       C  0.59389351  0.40864775  0.05653172    -0.30470
H1675       H  0.58406673  0.45441388  0.03394335     0.13730
H1676       H  0.59229294  0.39236739  0.07935833     0.14300
C1677       C  0.60188039  0.25391858  0.09603328    -0.15300
C1678       C  0.61083917  0.24462420  0.06432762    -0.30470
H1679       H  0.60918318  0.27741027  0.10460618     0.13730
H1680       H  0.60115604  0.22274180  0.05413921     0.14300
C1681       C  0.77043112  0.37829371  0.01192539    -0.15300
C1682       C  0.75398103  0.36676525  0.98602868    -0.30470
H1683       H  0.75794935  0.38904066  0.03398013     0.13730
H1684       H  0.76753062  0.35524310  0.96505572     0.14300
C1685       C  0.52049184  0.30348863  0.95494286    -0.15300
C1686       C  0.99883309  0.31768461  0.93577394    -0.30470
H1687       H  0.51188391  0.28866588  0.97735741     0.13730
H1688       H  0.00960497  0.33176263  0.91377032     0.14300
C1689       C  0.65903442  0.20949939  0.94778508    -0.15300
C1690       C  0.66319309  0.24020446  0.93449411    -0.30470
H1691       H  0.65347487  0.20552383  0.97537852     0.13730
H1692       H  0.66484783  0.24464414  0.90656041     0.14300
C1693       C  0.66437772  0.48350120  0.95160603    -0.15300
C1694       C  0.64978292  0.46189697  0.93208154    -0.30470
H1695       H  0.61061897  0.98267617  0.97813395     0.13730
H1696       H  0.63458517  0.47145740  0.91154645     0.14300
C1697       C  0.86190298  0.22123933  0.95255733    -0.15300
C1698       C  0.86284048  0.25299780  0.94218300    -0.30470
H1699       H  0.86227583  0.21485771  0.98012132     0.13730
H1700       H  0.86667258  0.25952215  0.91478647     0.14300
C1701       C  0.85622034  0.49781024  0.95370116    -0.15300
C1702       C  0.87650673  0.47750048  0.97133871    -0.30470
H1703       H  0.83498596  0.98852747  0.93637867     0.13730
H1704       H  0.89628489  0.48900172  0.98402691     0.14300
C1705       C  0.76976121  0.10986480  0.87236718    -0.15300
C1706       C  0.75176644  0.08499077  0.88512538    -0.30470
H1707       H  0.75777547  0.13162350  0.86213026     0.13730
H1708       H  0.76264728  0.06291853  0.89584044     0.14300
C1709       C  0.99783961  0.14351881  0.95744394    -0.15300
C1710       C  0.51641536  0.14172695  0.92546895    -0.30470
H1711       H  0.00951325  0.16167657  0.93996850     0.13730
H1712       H  0.51165325  0.15520655  0.94865892     0.14300
C1713       C  0.81867581  0.26610524  0.30871304    -0.15300
C1714       C  0.82712472  0.26555889  0.27480047    -0.30470
H1715       H  0.79680376  0.25368516  0.31881439     0.13730
H1716       H  0.84723431  0.28045817  0.26432845     0.14300
C1717       C  0.78468127  0.43216092  0.31937750    -0.15300
C1718       C  0.81498294  0.42220824  0.32577598    -0.30470
H1719       H  0.76580906  0.43271074  0.33990040     0.13730
H1720       H  0.83343916  0.42251626  0.30471109     0.14300
C1721       C  0.65601879  0.26069668  0.35118150    -0.15300
C1722       C  0.65632541  0.26553714  0.31658385    -0.30470
H1723       H  0.67287783  0.24359642  0.36309346     0.13730
H1724       H  0.64163658  0.28469043  0.30482266     0.14300
C1725       C  0.64833852  0.41133504  0.35266730    -0.15300
C1726       C  0.63695837  0.43790695  0.33575545    -0.30470
H1727       H  0.67029826  0.39962603  0.34249242     0.13730
H1728       H  0.61744890  0.45201484  0.34770697     0.14300
C1729       C  0.49049100  0.35624386  0.41227826    -0.15300
C1730       C  0.97127064  0.37444571  0.38356732    -0.30470
H1731       H  0.47609518  0.33754342  0.42637704     0.13730
H1732       H  0.98554040  0.39317620  0.36952668     0.14300
C1733       C  0.74403424  0.31323382  0.44742782    -0.15300
C1734       C  0.72639763  0.32628788  0.47314721    -0.30470
H1735       H  0.73248609  0.29756118  0.42973496     0.13730
H1736       H  0.73886644  0.34192912  0.49019928     0.14300
C1737       C  0.58315595  0.21022806  0.46697061    -0.15300
C1738       C  0.59050787  0.23969198  0.47898156    -0.30470
H1739       H  0.57927473  0.20839012  0.43949573     0.13730
H1740       H  0.59779360  0.24115695  0.50556616     0.14300
C1741       C  0.58833381  0.49038585  0.44744556    -0.15300
C1742       C  0.57645963  0.46476397  0.46671551    -0.30470
H1743       H  0.60174020  0.98535586  0.41872597     0.13730
H1744       H  0.56367823  0.46826953  0.49144738     0.14300
C1745       C  0.88184853  0.24611237  0.43053449    -0.15300
C1746       C  0.87100118  0.21729164  0.42030286    -0.30470
H1747       H  0.89006740  0.24819138  0.45669622     0.13730
H1748       H  0.85992506  0.21608160  0.39533947     0.14300
C1749       C  0.88873687  0.49231017  0.42687452    -0.15300
C1750       C  0.87777472  0.46614287  0.44640894    -0.30470
H1751       H  0.90016443  0.98878900  0.39901485     0.13730
H1752       H  0.86571340  0.47090602  0.47127831     0.14300
C1753       C  0.49150902  0.08326457  0.50633366    -0.15300
C1754       C  0.97919042  0.10553236  0.48299144    -0.30470
H1755       H  0.47843488  0.06165022  0.51572417     0.13730
H1756       H  0.99382029  0.12591943  0.47274685     0.14300
C1757       C  0.73984097  0.12963570  0.43036568    -0.15300
C1758       C  0.72030846  0.14251758  0.45450446    -0.30470
H1759       H  0.72882884  0.11459563  0.41163585     0.13730
H1760       H  0.73027290  0.15752476  0.47386569     0.14300
C1761       C  0.67245011  0.04046582  0.58356901    -0.15300
C1762       C  0.64712592  0.02878396  0.56710768    -0.30470
H1763       H  0.68545206  0.06148823  0.57236539     0.13730
H1764       H  0.63183228  0.01008755  0.57983433     0.14300
C1765       C  0.81580088  0.05224348  0.56804652    -0.15300
C1766       C  0.83431780  0.03904108  0.54308781    -0.30470
H1767       H  0.80721588  0.07709252  0.56490463     0.13730
H1768       H  0.84445572  0.01483995  0.54679804     0.14300
C1769       C  0.81787277  0.18953242  0.55943887    -0.15300
C1770       C  0.82940856  0.21360853  0.57782582    -0.30470
H1771       H  0.79385005  0.17975593  0.56640368     0.13730
H1772       H  0.85219680  0.22533353  0.56954316     0.14300
C1773       C  0.64470590  0.18160471  0.58807957    -0.15300
C1774       C  0.66923093  0.19961704  0.57443945    -0.30470
H1775       H  0.63787406  0.18191277  0.61554981     0.13730
H1776       H  0.67416801  0.20139721  0.54654695     0.14300
C1777       C  0.75796726  0.36672517  0.62444106    -0.15300
C1778       C  0.73130447  0.38513090  0.62972887    -0.30470
H1779       H  0.78237502  0.37654098  0.62564532     0.13730
H1780       H  0.70691331  0.37549719  0.62766026     0.14300
C1781       C  0.72962737  0.13862927  0.70753112    -0.15300
C1782       C  0.75013364  0.11338675  0.70847253    -0.30470
H1783       H  0.70345184  0.13485653  0.70698919     0.13730
H1784       H  0.77633854  0.11721434  0.70821212     0.14300
C1785       C  0.58888846  0.47607736  0.70844525    -0.15300
C1786       C  0.61771878  0.46197688  0.71609077    -0.30470
H1787       H  0.58845346  0.49349982  0.68653676     0.13730
H1788       H  0.61905517  0.44371866  0.73706007     0.14300
C1789       C  0.86896302  0.47795523  0.69619361    -0.15300
C1790       C  0.84071191  0.49453735  0.70198587    -0.30470
H1791       H  0.86933070  0.45731718  0.67974642     0.13730
H1792       H  0.84067988  0.51431654  0.71960040     0.14300
C1793       C  0.60575277  0.02943970  0.82886930    -0.15300
C1794       C  0.59322288  0.99909445  0.82604495    -0.30470
H1795       H  0.60260612  0.00633903  0.84326570     0.13730
H1796       H  0.55500108  0.55879966  0.84083546     0.14300
C1797       C  0.91226615  0.02991049  0.82292990    -0.15300
C1798       C  0.92725316  0.05256622  0.84031093    -0.30470
H1799       H  0.89203425  0.51731509  0.83511662     0.13730
H1800       H  0.94964943  0.06351297  0.82943715     0.14300
C1801       C  0.89464934  0.28102006  0.66553811    -0.15300
C1802       C  0.86844199  0.28670544  0.68658281    -0.30470
H1803       H  0.89038810  0.27388744  0.63936604     0.13730
H1804       H  0.87199994  0.29155320  0.71356739     0.14300
C1805       C  0.61517050  0.26524426  0.67959108    -0.15300
C1806       C  0.64559724  0.26879146  0.69140548    -0.30470
H1807       H  0.61243866  0.25946852  0.65271336     0.13730
H1808       H  0.64858837  0.27095908  0.71900725     0.14300
C1809       C  0.99279714  0.36885671  0.73444163    -0.15300
C1810       C  0.96873543  0.38176962  0.75396180    -0.30470
H1811       H  0.51159388  0.38311171  0.72089289     0.13730
H1812       H  0.94833377  0.36753975  0.76486461     0.14300
C1813       C  0.02807796  0.13072998  0.69692604    -0.15300
C1814       C  0.01879407  0.11322476  0.72527841    -0.30470
H1815       H  0.54570452  0.11543156  0.69512506     0.13730
H1816       H  0.01325694  0.12528055  0.74935900     0.14300
C1817       C  0.93515493  0.20265458  0.81929958    -0.15300
C1818       C  0.92380231  0.22069688  0.79256541    -0.30470
H1819       H  0.96091399  0.19636533  0.81938985     0.13730
H1820       H  0.89841782  0.22833641  0.79281833     0.14300
C1821       C  0.59449498  0.22391464  0.81842633    -0.15300
C1822       C  0.61882475  0.20317431  0.81173563    -0.30470
H1823       H  0.58733962  0.22917646  0.84499822     0.13730
H1824       H  0.62745027  0.19977988  0.78514954     0.14300
O1825       O  0.98703854  0.66973721  0.69273116    -0.79760
O1826       O  0.97535631  0.81400839  0.73812137    -0.64440
O1827       O  0.99354767  0.73531714  0.69499905    -1.11050
C1828       C  0.56968081  0.72838041  0.78545072     1.07130
O1829       O  0.52589860  0.82076558  0.72555889    -0.77650
O1830       O  0.58004554  0.78114586  0.72543123    -0.65230
Ni1831     Ni  0.95826568  0.70589272  0.69220713     1.34870
C1832       C  0.58336271  0.76177925  0.70103916     0.85870
O1833       O  0.94872069  0.78630638  0.68524804    -0.78190
O1834       O  0.92446565  0.73831843  0.68858111    -0.88470
C1835       C  0.99906697  0.83340017  0.73419874     0.85440
O1836       O  0.95202581  0.70256603  0.74160777    -0.66670
O1837       O  0.56344692  0.75842706  0.78898350    -0.85960
C1838       C  0.94320686  0.72621212  0.75983717     0.86270
C1839       C  0.92420014  0.76850770  0.68107638     1.07840
H1840       H  0.50315073  0.75114965  0.76838221     0.39640
O1841       O  0.51380471  0.75785806  0.74650629    -1.08620
O1842       O  0.56149942  0.74121423  0.69500002    -0.65270
Ni1843     Ni  0.52838967  0.72041219  0.72573425     1.26350
O1844       O  0.94898036  0.75558464  0.74999986    -0.65500
O1845       O  0.55983735  0.71175404  0.76067374    -0.77790
C1846       C  0.52129333  0.65991904  0.69749709     0.85660
O1847       O  0.54110425  0.68158607  0.70483054    -0.64960
Ni1848     Ni  0.54432594  0.78929914  0.75741401     1.27450
Ni1849     Ni  0.98194550  0.77419643  0.71708576     1.26060
H1850       H  0.00311371  0.74029466  0.67210601     0.40200
O1851       O  0.50417462  0.91775706  0.74465793    -0.79760
O1852       O  0.52199566  0.55467258  0.72510926    -0.64440
O1853       O  0.49809366  0.97514491  0.77382104    -1.11050
C1854       C  0.90074136  0.98787655  0.70853841     1.07130
O1855       O  0.97376293  0.58115035  0.72341459    -0.77650
O1856       O  0.93364826  0.54760043  0.76806694    -0.65230
Ni1857     Ni  0.52718881  0.94025984  0.77764193     1.34870
C1858       C  0.92442534  0.02284111  0.78779269     0.85870
O1859       O  0.54159043  0.52774063  0.78371978    -0.78190
O1860       O  0.55138023  0.96313172  0.80987311    -0.88470
C1861       C  0.00491683  0.58174938  0.72200488     0.85440
O1862       O  0.55999664  0.95192693  0.74278115    -0.66670
O1863       O  0.90404579  0.01819784  0.71277807    -0.85960
C1864       C  0.56097635  0.97463068  0.71970337     0.86270
C1865       C  0.56369816  0.99157356  0.80519181     1.07840
H1866       H  0.97908765  0.00879331  0.69801446     0.39640
O1867       O  0.97139696  0.01363164  0.72119534    -1.08620
O1868       O  0.92701412  0.99358380  0.77888141    -0.65270
Ni1869     Ni  0.95821419  0.97488081  0.74591486     1.26350
O1870       O  0.53905843  0.99641220  0.71798933    -0.65500
O1871       O  0.92314191  0.96721165  0.71556867    -0.77790
C1872       C  0.97504669  0.91405447  0.76417814     0.85660
O1873       O  0.95131072  0.93358536  0.76842862    -0.64960
Ni1874     Ni  0.94083035  0.54803051  0.71928850     1.27450
Ni1875     Ni  0.51390796  0.01462237  0.75560592     1.26060
H1876       H  0.98195523  0.99394977  0.79720241     0.40200
O1877       O  0.77063698  0.67394464  0.69256949    -0.79760
O1878       O  0.77908854  0.81359742  0.61984076    -0.64440
O1879       O  0.76612535  0.73965910  0.67993828    -1.11050
C1880       C  0.68594439  0.72232238  0.59684948     1.07130
O1881       O  0.72575832  0.82139388  0.62803810    -0.77650
O1882       O  0.67459803  0.77942509  0.63978989    -0.65230
Ni1883     Ni  0.80055524  0.70914727  0.68458424     1.34870
C1884       C  0.67432637  0.76652327  0.67017991     0.85870
O1885       O  0.81133138  0.78996253  0.67502003    -0.78190
O1886       O  0.83486098  0.74117999  0.67976493    -0.88470
C1887       C  0.75444223  0.83232677  0.62204623     0.85440
O1888       O  0.80292905  0.70195773  0.63588663    -0.66670
O1889       O  0.69370512  0.74979169  0.58285926    -0.85960
C1890       C  0.81107067  0.72350692  0.61270169     0.86270
C1891       C  0.83592268  0.77191451  0.68103925     1.07840
H1892       H  0.75149316  0.74826080  0.60323458     0.39640
O1893       O  0.74192137  0.75853200  0.62320428    -1.08620
O1894       O  0.69925831  0.75176404  0.68174749    -0.65270
Ni1895     Ni  0.72951613  0.72546051  0.65495745     1.26350
O1896       O  0.80690844  0.75371235  0.61749003    -0.65500
O1897       O  0.69448154  0.71182759  0.62693938    -0.77790
C1898       C  0.73987828  0.67036142  0.69686879     0.85660
O1899       O  0.71939212  0.69166483  0.68771696    -0.64960
Ni1900     Ni  0.70957925  0.78566802  0.60533980     1.27450
Ni1901     Ni  0.77581833  0.77547034  0.64885089     1.26060
H1902       H  0.75910834  0.74710796  0.70241104     0.40200
O1903       O  0.70734765  0.57499288  0.70431941    -0.79760
O1904       O  0.71068561  0.93810898  0.63246768    -0.64440
O1905       O  0.71946773  0.01181729  0.68588364    -1.11050
C1906       C  0.80163966  0.03148420  0.59637609     1.07130
O1907       O  0.76285592  0.92974979  0.64276661    -0.77650
O1908       O  0.81273874  0.97170572  0.65357784    -0.65230
Ni1909     Ni  0.68060208  0.53873063  0.69620813     1.34870
C1910       C  0.81193511  0.99057327  0.67855005     0.85870
O1911       O  0.67566584  0.96023675  0.68709143    -0.78190
O1912       O  0.65000350  0.00743065  0.68318109    -0.88470
C1913       C  0.73559291  0.91972554  0.63308787     0.85440
O1914       O  0.68320992  0.54749443  0.64732228    -0.66670
O1915       O  0.80184647  0.00100491  0.59192210    -0.85960
C1916       C  0.68113913  0.02858398  0.61854900     0.86270
C1917       C  0.64979356  0.97712155  0.68998804     1.07840
H1918       H  0.73958400  0.00022434  0.60843103     0.39640
O1919       O  0.74767299  0.99244131  0.63038820    -1.08620
O1920       O  0.78780829  0.00932680  0.68468506    -0.65270
Ni1921     Ni  0.75482267  0.02869141  0.65570426     1.26350
O1922       O  0.68374080  0.99806178  0.62557180    -0.65500
O1923       O  0.78371344  0.54362494  0.62476340    -0.77790
C1924       C  0.73727561  0.58236557  0.69999699     0.85660
O1925       O  0.75828628  0.56527218  0.68437541    -0.64960
Ni1926     Ni  0.78273124  0.96541297  0.61781132     1.27450
Ni1927     Ni  0.71238054  0.97556493  0.65858391     1.26060
H1928       H  0.72688907  0.00496241  0.70846247     0.40200
O1929       O  0.93160416  0.63546179  0.47451524    -0.79760
O1930       O  0.79065919  0.63958501  0.45398788    -0.64440
O1931       O  0.87039976  0.62017870  0.49456977    -1.11050
C1932       C  0.87653093  0.52525822  0.43599539     1.07130
O1933       O  0.77784430  0.58931934  0.44045171    -0.77650
O1934       O  0.81242599  0.56103979  0.49410513    -0.65230
Ni1935     Ni  0.89899833  0.65316088  0.50521407     1.34870
C1936       C  0.83701366  0.55336067  0.51191945     0.85870
O1937       O  0.81953016  0.66201840  0.50910510    -0.78190
O1938       O  0.86621235  0.67102447  0.53621263    -0.88470
C1939       C  0.77130310  0.61917212  0.44274252     0.85440
O1940       O  0.88881733  0.68603545  0.47118022    -0.66670
O1941       O  0.84667576  0.52685719  0.44576572    -0.85960
C1942       C  0.86916170  0.68704866  0.44677556     0.86270
C1943       C  0.83524246  0.67368412  0.53373378     1.07840
H1944       H  0.84731983  0.60510747  0.41962118     0.39640
O1945       O  0.84354722  0.59654245  0.44311413    -1.08620
O1946       O  0.86629972  0.55642370  0.49991764    -0.65270
Ni1947     Ni  0.88381942  0.58664242  0.46412025     1.26350
O1948       O  0.84904559  0.66427504  0.44244127    -0.65500
O1949       O  0.89459916  0.55044218  0.43479157    -0.77790
C1950       C  0.94336163  0.60741998  0.48105712     0.85660
O1951       O  0.92526479  0.58251618  0.48393647    -0.64960
Ni1952     Ni  0.81430158  0.56085274  0.44454531     1.27450
Ni1953     Ni  0.83104734  0.63066127  0.47454872     1.26060
H1954       H  0.86465890  0.61039703  0.51711249     0.40200
O1955       O  0.68864486  0.59509604  0.47011880    -0.79760
O1956       O  0.54337540  0.56771584  0.52571707    -0.64440
O1957       O  0.62121140  0.59199125  0.47536081    -1.11050
C1958       C  0.62321706  0.66495118  0.56752905     1.07130
O1959       O  0.53004498  0.62016605  0.52239645    -0.77650
O1960       O  0.56868572  0.67565329  0.51799419    -0.65230
Ni1961     Ni  0.65590771  0.56185512  0.47020071     1.34870
C1962       C  0.58479307  0.67892517  0.48919153     0.85870
O1963       O  0.57546495  0.54221410  0.47089587    -0.78190
O1964       O  0.62732870  0.52529236  0.46655889    -0.88470
C1965       C  0.52264407  0.59023278  0.52068525     0.85440
O1966       O  0.65849784  0.55433692  0.51926719    -0.66670
O1967       O  0.59489248  0.65527598  0.57790196    -0.85960
C1968       C  0.63568388  0.54366293  0.53995172     0.86270
C1969       C  0.59696125  0.52114842  0.46271988     1.07840
H1970       H  0.60333258  0.59908636  0.55250050     0.39640
O1971       O  0.59423955  0.60927646  0.53209636    -1.08620
O1972       O  0.60302118  0.65628919  0.47809429    -0.65270
Ni1973     Ni  0.62912458  0.62661323  0.50555788     1.26350
O1974       O  0.60566566  0.54555967  0.53241105    -0.65500
O1975       O  0.63647301  0.65902122  0.53792063    -0.77790
C1976       C  0.68901369  0.62600214  0.46916924     0.85660
O1977       O  0.66492379  0.64297741  0.47850131    -0.64960
Ni1978     Ni  0.56261584  0.63798485  0.54979704     1.27450
Ni1979     Ni  0.58364029  0.57651753  0.50147588     1.26060
H1980       H  0.61505497  0.60041440  0.45282993     0.40200
O1981       O  0.68377338  0.86761476  0.46288774    -0.79760
O1982       O  0.54081096  0.87225643  0.40392946    -0.64440
O1983       O  0.61793886  0.86116893  0.45537921    -1.11050
C1984       C  0.63389450  0.77880637  0.37291160     1.07130
O1985       O  0.53388786  0.81997039  0.41760431    -0.77650
O1986       O  0.57610723  0.76891983  0.42694148    -0.65230
Ni1987     Ni  0.64798094  0.89612927  0.45456630     1.34870
C1988       C  0.59170726  0.76899223  0.45459762     0.85870
O1989       O  0.56707364  0.90789242  0.45341073    -0.78190
O1990       O  0.61623853  0.93013711  0.44816963    -0.88470
C1991       C  0.52240703  0.84747885  0.40823077     0.85440
O1992       O  0.65484491  0.89342850  0.40567823    -0.66670
O1993       O  0.60443804  0.78375203  0.36430630    -0.85960
C1994       C  0.63311956  0.89972262  0.38381106     0.86270
C1995       C  0.58561797  0.93252009  0.45376865     1.07840
H1996       H  0.60536769  0.84236751  0.38112479     0.39640
O1997       O  0.59653543  0.83418939  0.40330125    -1.08620
O1998       O  0.60956352  0.79298371  0.46163430    -0.65270
Ni1999     Ni  0.63249146  0.82397496  0.42950460     1.26350
O2000       O  0.60251915  0.89773423  0.39191260    -0.65500
O2001       O  0.64598209  0.78912582  0.40038551    -0.77790
C2002       C  0.69011336  0.83754323  0.46389534     0.85660
O2003       O  0.67032772  0.81608561  0.45545871    -0.64960
Ni2004     Ni  0.56890925  0.80147857  0.39104688     1.27450
Ni2005     Ni  0.58051316  0.87000377  0.42843753     1.26060
H2006       H  0.61132734  0.85471694  0.47897945     0.40200
O2007       O  0.93190119  0.83317482  0.37345771    -0.79760
O2008       O  0.79455147  0.81332044  0.42108321    -0.64440
O2009       O  0.86673769  0.84330851  0.36641473    -1.11050
C2010       C  0.86865702  0.93488720  0.43192007     1.07130
O2011       O  0.77502419  0.86155215  0.43609571    -0.77650
O2012       O  0.80297631  0.90044875  0.38260785    -0.65230
Ni2013     Ni  0.89778505  0.81394284  0.34889513     1.34870
C2014       C  0.82514807  0.90905372  0.36000125     0.85870
O2015       O  0.82116551  0.79457149  0.36124402    -0.78190
O2016       O  0.86457382  0.79445026  0.32344451    -0.88470
C2017       C  0.77265408  0.83084864  0.43459170     0.85440
O2018       O  0.89303560  0.77860791  0.38305202    -0.66670
O2019       O  0.83802094  0.93079796  0.43044812    -0.85960
C2020       C  0.87590788  0.77551725  0.41113708     0.86270
C2021       C  0.83548558  0.78604062  0.33292648     1.07840
H2022       H  0.84874144  0.85358230  0.44550609     0.39640
O2023       O  0.84175752  0.86239106  0.42343819    -1.08620
O2024       O  0.85556703  0.90648045  0.36532712    -0.65270
Ni2025     Ni  0.87892767  0.87687987  0.39573632     1.26350
O2026       O  0.85576388  0.79708081  0.42093312    -0.65500
O2027       O  0.88905790  0.91254771  0.42443011    -0.77790
C2028       C  0.93946782  0.86318641  0.37350425     0.85660
O2029       O  0.91825785  0.88536960  0.36931044    -0.64960
Ni2030     Ni  0.80868133  0.89414047  0.43122134     1.27450
Ni2031     Ni  0.83101982  0.82768604  0.39340159     1.26060
H2032       H  0.85782183  0.85318662  0.34575175     0.40200
O2033       O  0.81220759  0.64303758  0.89315731    -0.79760
O2034       O  0.94792572  0.65193885  0.93295553    -0.64440
O2035       O  0.87537236  0.63056277  0.88285582    -1.11050
C2036       C  0.86718295  0.53240916  0.94642296     1.07130
O2037       O  0.96308196  0.60186861  0.94892991    -0.77650
O2038       O  0.93588822  0.57103770  0.89606366    -0.65230
Ni2039     Ni  0.84715300  0.66366601  0.86714461     1.34870
C2040       C  0.91474573  0.56434275  0.87432981     0.85870
O2041       O  0.92510564  0.67510303  0.87375050    -0.78190
O2042       O  0.88219829  0.68366788  0.83984326    -0.88470
C2043       C  0.96818122  0.63218019  0.94560576     0.85440
O2044       O  0.85163621  0.69538778  0.90176784    -0.66670
O2045       O  0.89787725  0.53663690  0.94433813    -0.85960
C2046       C  0.86780120  0.69490773  0.92908327     0.86270
C2047       C  0.91234989  0.68669594  0.84611524     1.07840
H2048       H  0.88929365  0.61301681  0.96120548     0.39640
O2049       O  0.89677687  0.60548498  0.93891076    -1.08620
O2050       O  0.88400141  0.56679122  0.88069220    -0.65270
Ni2051     Ni  0.86007900  0.59463970  0.91234029     1.26350
O2052       O  0.88781027  0.67220982  0.93645041    -0.65500
O2053       O  0.84740953  0.55595322  0.94052347    -0.77790
C2054       C  0.80259433  0.61529580  0.88496340     0.85660
O2055       O  0.82140463  0.59056031  0.88675287    -0.64960
Ni2056     Ni  0.92823002  0.57183203  0.94501313     1.27450
Ni2057     Ni  0.91114564  0.64162620  0.90779451     1.26060
H2058       H  0.88426946  0.62207396  0.86157143     0.40200
O2059       O  0.55540869  0.58484469  0.96434795    -0.79760
O2060       O  0.69389151  0.57128615  0.88445238    -0.64440
O2061       O  0.62036530  0.58927430  0.94415913    -1.11050
C2062       C  0.60134018  0.66586662  0.85009004     1.07130
O2063       O  0.70416009  0.62397540  0.88493194    -0.77650
O2064       O  0.66343858  0.67674509  0.89512091    -0.65230
Ni2065     Ni  0.59026150  0.55511134  0.95563305     1.34870
C2066       C  0.64712612  0.67921010  0.92353167     0.85870
O2067       O  0.67052890  0.54154801  0.94325162    -0.78190
O2068       O  0.62111585  0.52031326  0.95107083    -0.88470
C2069       C  0.71394252  0.59468501  0.88240639     0.85440
O2070       O  0.58039961  0.55241459  0.90780183    -0.66670
O2071       O  0.63097223  0.66159488  0.83967729    -0.85960
C2072       C  0.60117679  0.54289298  0.88488379     0.86270
C2073       C  0.65191737  0.51727625  0.94945047     1.07840
H2074       H  0.62994100  0.60126387  0.86475899     0.39640
O2075       O  0.63945360  0.61110311  0.88412921    -1.08620
O2076       O  0.62784561  0.65692750  0.93570971    -0.65270
Ni2077     Ni  0.60435759  0.62343015  0.91300808     1.26350
O2078       O  0.63190398  0.54708019  0.88707178    -0.65500
O2079       O  0.58892130  0.65473136  0.87907125    -0.77790
C2080       C  0.54955383  0.61487095  0.96012033     0.85660
O2081       O  0.56814779  0.63429950  0.94256692    -0.64960
Ni2082     Ni  0.66720392  0.64268098  0.86275345     1.27450
Ni2083     Ni  0.65609367  0.57740410  0.91380269     1.26060
H2084       H  0.62831334  0.59804376  0.96496403     0.40200
O2085       O  0.54850531  0.85620711  0.94896009    -0.79760
O2086       O  0.69470046  0.87614041  0.99289199    -0.64440
O2087       O  0.61508108  0.85801457  0.95033635    -1.11050
C2088       C  0.62119117  0.76907309  0.03313026     1.07130
O2089       O  0.70858929  0.82682331  0.97674481    -0.77650
O2090       O  0.67183107  0.77011823  0.97328514    -0.65230
Ni2091     Ni  0.58066618  0.88895737  0.95309813     1.34870
C2092       C  0.65166448  0.76915852  0.94932096     0.85870
O2093       O  0.65938718  0.91035108  0.94670637    -0.78190
O2094       O  0.60819280  0.92659193  0.95562476    -0.88470
C2095       C  0.71639864  0.85541273  0.98435448     0.85440
O2096       O  0.57830393  0.88358804  0.00231365    -0.66670
O2097       O  0.65052020  0.77745570  0.03806551    -0.85960
C2098       C  0.60088242  0.89194055  0.02155262     0.86270
C2099       C  0.63813409  0.93280965  0.94854631     1.07840
H2100       H  0.63840122  0.83670299  0.02271068     0.39640
O2101       O  0.64563381  0.83109229  0.99964504    -1.08620
O2102       O  0.63130594  0.79212820  0.94369918    -0.65270
Ni2103     Ni  0.60853579  0.81800698  0.97811349     1.26350
O2104       O  0.63101729  0.89267383  0.01108583    -0.65500
O2105       O  0.60391240  0.78005946  0.00835995    -0.77790
C2106       C  0.54623997  0.82548593  0.94928934     0.85660
O2107       O  0.56937277  0.80650222  0.95717913    -0.64960
Ni2108     Ni  0.67956687  0.80169216  0.00724390     1.27450
Ni2109     Ni  0.65349611  0.86996966  0.97297997     1.26060
H2110       H  0.62038965  0.85358165  0.92640143     0.40200
O2111       O  0.80636304  0.83576574  0.00794084    -0.79760
O2112       O  0.94762260  0.81631940  0.97093536    -0.64440
O2113       O  0.87035134  0.83882330  0.02048287    -1.11050
C2114       C  0.87709345  0.94250958  0.97138933     1.07130
O2115       O  0.96143870  0.86435720  0.94595768    -0.77650
O2116       O  0.93973428  0.88793016  0.00951650    -0.65230
Ni2117     Ni  0.83730026  0.80851263  0.03124047     1.34870
C2118       C  0.91922640  0.89474421  0.03395884     0.85870
O2119       O  0.91646495  0.79057820  0.02819090    -0.78190
O2120       O  0.86745417  0.78105020  0.05571223    -0.88470
C2121       C  0.96583309  0.83417749  0.95100585     0.85440
O2122       O  0.84229517  0.78081581  0.99261089    -0.66670
O2123       O  0.90674887  0.93439106  0.97389526    -0.85960
C2124       C  0.86372829  0.77948581  0.96803334     0.86270
C2125       C  0.89814431  0.77594090  0.05170240     1.07840
H2126       H  0.89117683  0.85990393  0.94432092     0.39640
O2127       O  0.89823468  0.86569753  0.96675579    -1.08620
O2128       O  0.88845957  0.89852694  0.02938805    -0.65270
Ni2129     Ni  0.86170106  0.87857591  0.99519693     1.26350
O2130       O  0.88754111  0.79909908  0.96449438    -0.65500
O2131       O  0.85500031  0.92090233  0.97120723    -0.77790
C2132       C  0.79980248  0.86541645  0.01391452     0.85660
O2133       O  0.82196432  0.88514964  0.02143224    -0.64960
Ni2134     Ni  0.93195394  0.89687477  0.96167980     1.27450
Ni2135     Ni  0.90829001  0.82704094  0.99591282     1.26060
H2136       H  0.87715339  0.84400569  0.04318912     0.40200
O2137       O  0.75567900  0.79388710  0.18178045    -0.79760
O2138       O  0.77477562  0.65705034  0.26054250    -0.64440
O2139       O  0.75307505  0.72762443  0.19850830    -1.11050
C2140       C  0.67613629  0.74512566  0.29300418     1.07130
O2141       O  0.72210682  0.64506607  0.25993089    -0.77650
O2142       O  0.66770823  0.68327884  0.25051858    -0.65230
Ni2143     Ni  0.78482821  0.75773046  0.17963548     1.34870
C2144       C  0.66500279  0.69733860  0.22086443     0.85870
O2145       O  0.80349814  0.67906444  0.20116872    -0.78190
O2146       O  0.81825369  0.72578932  0.17391452    -0.88470
C2147       C  0.75200884  0.63628709  0.26028045     0.85440
O2148       O  0.80072777  0.76742390  0.22354309    -0.66670
O2149       O  0.68399571  0.71698805  0.30492678    -0.85960
C2150       C  0.80657637  0.74951990  0.25019286     0.86270
C2151       C  0.82371369  0.69646006  0.18282791     1.07840
H2152       H  0.74297211  0.72052436  0.27793010     0.39640
O2153       O  0.73311556  0.70981165  0.25930697    -1.08620
O2154       O  0.68668373  0.71662862  0.20756033    -0.65270
Ni2155     Ni  0.71830255  0.74285420  0.22943224     1.26350
O2156       O  0.79722285  0.72007319  0.25459918    -0.65500
O2157       O  0.68504518  0.75674399  0.26277796    -0.77790
C2158       C  0.72535449  0.79890901  0.18669068     0.85660
O2159       O  0.70564585  0.77756255  0.19908006    -0.64960
Ni2160     Ni  0.70307291  0.68135209  0.28205785     1.27450
Ni2161     Ni  0.76730237  0.69370719  0.22999975     1.26060
H2162       H  0.74357978  0.71763378  0.17919355     0.40200
O2163       O  0.70466394  0.53961694  0.23622690    -0.79760
O2164       O  0.69483846  0.89888908  0.23086540    -0.64440
O2165       O  0.71378779  0.47974131  0.26355484    -1.11050
C2166       C  0.81502806  0.47473642  0.20695403     1.07130
O2167       O  0.74441768  0.88321467  0.21188759    -0.77650
O2168       O  0.77131544  0.91562770  0.26531021    -0.65230
Ni2169     Ni  0.68095990  0.51110684  0.26860031     1.34870
C2170       C  0.77718287  0.93967315  0.28361976     0.85870
O2171       O  0.66928542  0.93368589  0.28172891    -0.78190
O2172       O  0.65753127  0.48286599  0.30193771    -0.88470
C2173       C  0.71392268  0.87859358  0.21716324     0.85440
O2174       O  0.65151866  0.49939679  0.23401948    -0.66670
O2175       O  0.81203535  0.94636037  0.21792240    -0.85960
C2176       C  0.65097785  0.47550308  0.21455905     0.86270
C2177       C  0.65529190  0.95259956  0.30332353     1.07840
H2178       H  0.73477656  0.95217833  0.19140243     0.39640
O2179       O  0.74168503  0.94856094  0.21486427    -1.08620
O2180       O  0.77589245  0.46852547  0.27146570    -0.65270
Ni2181     Ni  0.75116743  0.48788103  0.23349772     1.26350
O2182       O  0.67460797  0.95649684  0.21279088    -0.65500
O2183       O  0.79083210  0.49414899  0.20445112    -0.77790
C2184       C  0.73300868  0.54990159  0.24241656     0.85660
O2185       O  0.75608142  0.53034789  0.25004283    -0.64960
Ni2186     Ni  0.77565187  0.91697890  0.21612873     1.27450
Ni2187     Ni  0.70438289  0.94019529  0.24712410     1.26060
H2188       H  0.72089181  0.47636190  0.28694503     0.40200
O2189       O  0.97862147  0.78485886  0.20762939    -0.79760
O2190       O  0.97262526  0.64934377  0.13606536    -0.64440
O2191       O  0.98433385  0.72060236  0.19345073    -1.11050
C2192       C  0.58050942  0.73319251  0.11367827     1.07130
O2193       O  0.52291452  0.63679213  0.14766629    -0.77650
O2194       O  0.57655594  0.67272183  0.16672371    -0.65230
Ni2195     Ni  0.94946083  0.75120471  0.19689744     1.34870
C2196       C  0.57605339  0.69091137  0.19238746     0.85870
O2197       O  0.93654062  0.67228385  0.18874149    -0.78190
O2198       O  0.91459737  0.72141129  0.18868181    -0.88470
C2199       C  0.99591746  0.62899502  0.13755987     0.85440
O2200       O  0.95486504  0.76228350  0.14862526    -0.66670
O2201       O  0.57585558  0.70392647  0.10581456    -0.85960
C2202       C  0.95013655  0.74298024  0.12465563     0.86270
C2203       C  0.91188619  0.69077664  0.19131087     1.07840
H2204       H  0.51350235  0.71120235  0.11527807     0.39640
O2205       O  0.51780249  0.70137070  0.13776146    -1.08620
O2206       O  0.55302181  0.71113517  0.19819305    -0.65270
Ni2207     Ni  0.52646446  0.73560181  0.16567689     1.26350
O2208       O  0.95157057  0.71206540  0.12969594    -0.65500
O2209       O  0.56534007  0.74737762  0.13842996    -0.77790
C2210       C  0.00900565  0.79064242  0.20619405     0.85660
O2211       O  0.53340205  0.77201558  0.19279428    -0.64960
Ni2212     Ni  0.54977664  0.67049917  0.12733732     1.27450
Ni2213     Ni  0.97602410  0.68584533  0.16402099     1.26060
H2214       H  0.98952910  0.71210872  0.21627551     0.40200
O2215       O  0.50585816  0.53702295  0.14410788    -0.79760
O2216       O  0.53617118  0.89690541  0.17150173    -0.64440
O2217       O  0.50189378  0.47493011  0.12807034    -1.11050
C2218       C  0.90739709  0.46369022  0.19774007     1.07130
O2219       O  0.98598835  0.87566962  0.18832663    -0.77650
O2220       O  0.94791336  0.90671797  0.13922433    -0.65230
Ni2221     Ni  0.53008563  0.50919921  0.11456014     1.34870
C2222       C  0.93690641  0.93022390  0.12056376     0.85870
O2223       O  0.55617298  0.93042466  0.11430876    -0.78190
O2224       O  0.55780968  0.97826987  0.08393284    -0.88470
C2225       C  0.01665984  0.87350239  0.18233454     0.85440
O2226       O  0.56279878  0.50410454  0.14832757    -0.66670
O2227       O  0.91392903  0.93535817  0.19248443    -0.85960
C2228       C  0.56845893  0.98049173  0.17326147     0.86270
C2229       C  0.56629058  0.94863358  0.08836972     1.07840
H2230       H  0.99234363  0.94669119  0.20366271     0.39640
O2231       O  0.98337620  0.94195797  0.18174609    -1.08620
O2232       O  0.93842295  0.45853393  0.12898713    -0.65270
Ni2233     Ni  0.96638901  0.47985435  0.16029397     1.26350
O2234       O  0.54862758  0.95724107  0.17922850    -0.65500
O2235       O  0.92925839  0.48532903  0.19227029    -0.77790
C2236       C  0.97768695  0.54216593  0.13821954     0.85660
O2237       O  0.95581230  0.52056612  0.13835450    -0.64960
Ni2238     Ni  0.95221969  0.90796834  0.18824911     1.27450
Ni2239     Ni  0.52082899  0.93507057  0.14885797     1.26060
H2240       H  0.99327452  0.46562075  0.10648765     0.40200
C2241       C  0.99344362  0.59686240  0.12449473    -0.15300
C2242       C  0.96943571  0.57664192  0.13510357    -0.30470
H2243       H  0.01608015  0.58711553  0.11344017     0.13730
H2244       H  0.94670623  0.58540511  0.14680746     0.14300
C2245       C  0.01829490  0.82285421  0.21594779    -0.15300
C2246       C  0.03247769  0.84244273  0.19128170    -0.30470
H2247       H  0.00204644  0.83370443  0.23522011     0.13730
H2248       H  0.55220779  0.83285332  0.17206445     0.14300
C2249       C  0.62650302  0.97770263  0.18808736    -0.15300
C2250       C  0.59517312  0.98460068  0.19729111    -0.30470
H2251       H  0.63220675  0.96832107  0.16269809     0.13730
H2252       H  0.59130737  0.50510549  0.21567155     0.14300
C2253       C  0.84940515  0.48467628  0.19698785    -0.15300
C2254       C  0.87457551  0.47055540  0.21383693    -0.30470
H2255       H  0.85403756  0.49943656  0.17338565     0.13730
H2256       H  0.86968223  0.95714185  0.23823902     0.14300
C2257       C  0.87853972  0.67745051  0.19659938    -0.15300
C2258       C  0.85645382  0.68430953  0.17246837    -0.30470
H2259       H  0.87019627  0.67152706  0.22315726     0.13730
H2260       H  0.86571995  0.69272640  0.14687234     0.14300
C2261       C  0.60472229  0.69008051  0.21497227    -0.15300
C2262       C  0.63555226  0.69139234  0.20071013    -0.30470
H2263       H  0.60072202  0.69331529  0.24256650     0.13730
H2264       H  0.63885097  0.69216776  0.17262968     0.14300
C2265       C  0.75901538  0.60162391  0.25661135    -0.15300
C2266       C  0.73737061  0.58485971  0.23956613    -0.30470
H2267       H  0.77901923  0.58986011  0.26982734     0.13730
H2268       H  0.71815724  0.59789379  0.22613174     0.14300
C2269       C  0.71463293  0.83232308  0.18125276    -0.15300
C2270       C  0.70085068  0.84727707  0.20819308    -0.30470
H2271       H  0.72896617  0.84675842  0.16200076     0.13730
H2272       H  0.68676579  0.83366239  0.22827872     0.14300
C2273       C  0.93201518  0.89917163  0.06835894    -0.15300
C2274       C  0.92196211  0.92373628  0.08764118    -0.30470
H2275       H  0.95224210  0.88394754  0.07650167     0.13730
H2276       H  0.90406360  0.94090472  0.07774134     0.14300
C2277       C  0.94163121  0.75784592  0.09061677    -0.15300
C2278       C  0.91260100  0.75257362  0.07711213    -0.30470
H2279       H  0.95588731  0.77857582  0.08077312     0.13730
H2280       H  0.89659331  0.73442785  0.08980809     0.14300
C2281       C  0.58790435  0.93506447  0.06086017    -0.15300
C2282       C  0.59065910  0.90314832  0.05605145    -0.30470
H2283       H  0.59797624  0.95192563  0.04086925     0.13730
H2284       H  0.57813890  0.88604217  0.07405071     0.14300
C2285       C  0.60324736  0.75215663  0.09128639    -0.15300
C2286       C  0.60572302  0.74602177  0.05758934    -0.30470
H2287       H  0.61424495  0.77366844  0.10093636     0.13730
H2288       H  0.59155671  0.72683500  0.04719435     0.14300
C2289       C  0.76624193  0.87640191  0.00825153    -0.15300
C2290       C  0.75103304  0.86309578  0.98235757    -0.30470
H2291       H  0.75291962  0.88954881  0.02808263     0.13730
H2292       H  0.76547477  0.84966066  0.96350958     0.14300
C2293       C  0.51399900  0.81213268  0.94306572    -0.15300
C2294       C  0.99507617  0.82084330  0.93401306    -0.30470
H2295       H  0.50477271  0.79382707  0.96195531     0.13730
H2296       H  0.00486446  0.83551430  0.91193759     0.14300
C2297       C  0.65075500  0.70921587  0.94337779    -0.15300
C2298       C  0.65124771  0.73962494  0.92823157    -0.30470
H2299       H  0.65010027  0.70650341  0.97149298     0.13730
H2300       H  0.64805717  0.74276105  0.90052413     0.14300
C2301       C  0.62949555  0.99049177  0.95904979    -0.15300
C2302       C  0.64745363  0.96749204  0.94313624    -0.30470
H2303       H  0.67851399  0.47549702  0.97354520     0.13730
H2304       H  0.66625303  0.97421396  0.92358292     0.14300
C2305       C  0.86354262  0.72168278  0.95355716    -0.15300
C2306       C  0.86174599  0.75329298  0.94293996    -0.30470
H2307       H  0.86581303  0.71563565  0.98101146     0.13730
H2308       H  0.86346243  0.75986556  0.91540254     0.14300
C2309       C  0.85336211  0.99819851  0.95241300    -0.15300
C2310       C  0.87104886  0.97823163  0.97331214    -0.30470
H2311       H  0.83570110  0.48848944  0.94045890     0.13730
H2312       H  0.88906931  0.98995057  0.98834169     0.14300
C2313       C  0.76911559  0.61364761  0.87416703    -0.15300
C2314       C  0.74931234  0.58844364  0.88126836    -0.30470
H2315       H  0.75885098  0.63669627  0.86517548     0.13730
H2316       H  0.75872896  0.56515102  0.89049987     0.14300
C2317       C  0.00049058  0.64397080  0.95380404    -0.15300
C2318       C  0.51801192  0.62587648  0.97419159    -0.30470
H2319       H  0.01185482  0.66134664  0.93519265     0.13730
H2320       H  0.50608606  0.60920018  0.99321035     0.14300
C2321       C  0.81717890  0.76591920  0.30961327    -0.15300
C2322       C  0.82656992  0.76416183  0.27601273    -0.30470
H2323       H  0.79449253  0.75471838  0.31922316     0.13730
H2324       H  0.84765796  0.77785244  0.26589764     0.14300
C2325       C  0.78603511  0.93269418  0.31936950    -0.15300
C2326       C  0.81597348  0.92157641  0.32564175    -0.30470
H2327       H  0.76750257  0.93461008  0.34008570     0.13730
H2328       H  0.83424639  0.92083516  0.30445917     0.14300
C2329       C  0.65520727  0.76007513  0.35010491    -0.15300
C2330       C  0.65530122  0.76490260  0.31551200    -0.30470
H2331       H  0.67233543  0.74322725  0.36197089     0.13730
H2332       H  0.64033061  0.78387090  0.30382593     0.14300
C2333       C  0.64459540  0.90984704  0.34834002    -0.15300
C2334       C  0.63569894  0.93820169  0.33310096    -0.30470
H2335       H  0.66534811  0.89674746  0.33738222     0.13730
H2336       H  0.61762405  0.95325076  0.34614697     0.14300
C2337       C  0.48755173  0.84854370  0.40272077    -0.15300
C2338       C  0.97252587  0.87132618  0.38316083    -0.30470
H2339       H  0.47408856  0.82761401  0.41357318     0.13730
H2340       H  0.98522273  0.89212512  0.37108176     0.14300
C2341       C  0.74188803  0.81543663  0.44676657    -0.15300
C2342       C  0.72360643  0.82900422  0.47166422    -0.30470
H2343       H  0.73084615  0.79924312  0.42923611     0.13730
H2344       H  0.73551494  0.84522802  0.48855073     0.14300
C2345       C  0.58241716  0.70965445  0.46740781    -0.15300
C2346       C  0.58945723  0.73947366  0.47876355    -0.30470
H2347       H  0.57882664  0.70716694  0.43996553     0.13730
H2348       H  0.59638531  0.74161867  0.50538377     0.14300
C2349       C  0.58704835  0.99094856  0.44181159    -0.15300
C2350       C  0.57302937  0.96572226  0.46020235    -0.30470
H2351       H  0.60208968  0.48538436  0.42357741     0.13730
H2352       H  0.55895560  0.96965444  0.48407398     0.14300
C2353       C  0.87913689  0.74558994  0.43328617    -0.15300
C2354       C  0.86948745  0.71637124  0.42294964    -0.30470
H2355       H  0.88616875  0.74812354  0.45981542     0.13730
H2356       H  0.85941652  0.71462111  0.39753978     0.14300
C2357       C  0.88934860  0.99241185  0.42467268    -0.15300
C2358       C  0.87872266  0.96659928  0.44506088    -0.30470
H2359       H  0.90007496  0.48925699  0.40133810     0.13730
H2360       H  0.86714431  0.97190943  0.47001524     0.14300
C2361       C  0.49059007  0.58274983  0.50830657    -0.15300
C2362       C  0.97803530  0.60540900  0.48606709    -0.30470
H2363       H  0.47712979  0.56181861  0.51896886     0.13730
H2364       H  0.99214031  0.62631646  0.47627479     0.14300
C2365       C  0.73837791  0.62878086  0.43427615    -0.15300
C2366       C  0.71963912  0.64213786  0.45880634    -0.30470
H2367       H  0.72670640  0.61356464  0.41616651     0.13730
H2368       H  0.73027370  0.65720274  0.47769742     0.14300
C2369       C  0.67099033  0.53751539  0.58985943    -0.15300
C2370       C  0.64406633  0.52873260  0.57406123    -0.30470
H2371       H  0.68644097  0.55642948  0.57779050     0.13730
H2372       H  0.62680372  0.51227738  0.58754381     0.14300
C2373       C  0.81174831  0.55034157  0.57033409    -0.15300
C2374       C  0.83166674  0.53762786  0.54617582    -0.30470
H2375       H  0.80246270  0.57488017  0.56656938     0.13730
H2376       H  0.84255686  0.51384611  0.55058238     0.14300
C2377       C  0.81607615  0.68907659  0.56204077    -0.15300
C2378       C  0.82774726  0.71315912  0.58025689    -0.30470
H2379       H  0.79204480  0.67934883  0.56906817     0.13730
H2380       H  0.85055019  0.72480594  0.57186952     0.14300
C2381       C  0.64183307  0.68432931  0.59025656    -0.15300
C2382       C  0.66643958  0.70215886  0.57641934    -0.30470
H2383       H  0.63518719  0.68463145  0.61776964     0.13730
H2384       H  0.67116699  0.70395237  0.54849495     0.14300
C2385       C  0.75886260  0.86704605  0.62192390    -0.15300
C2386       C  0.73255308  0.88631655  0.62444683    -0.30470
H2387       H  0.78342165  0.87652215  0.62302788     0.13730
H2388       H  0.70805130  0.87697452  0.62229602     0.14300
C2389       C  0.72747018  0.63879435  0.70909633    -0.15300
C2390       C  0.74801318  0.61359439  0.71064917    -0.30470
H2391       H  0.70131463  0.63497268  0.70836230     0.13730
H2392       H  0.77421845  0.61743159  0.71029091     0.14300
C2393       C  0.59010688  0.97830875  0.69622917    -0.15300
C2394       C  0.61836283  0.96232285  0.70196074    -0.30470
H2395       H  0.59022590  0.99912141  0.67801234     0.13730
H2396       H  0.61882413  0.94112754  0.71957095     0.14300
C2397       C  0.86957683  0.97699531  0.69425158    -0.15300
C2398       C  0.84121246  0.99336893  0.69985248    -0.30470
H2399       H  0.87042934  0.95678410  0.67721392     0.13730
H2400       H  0.84073382  0.01269098  0.71805159     0.14300
C2401       C  0.58955560  0.52405870  0.85638944    -0.15300
C2402       C  0.56465469  0.53452621  0.83755805    -0.30470
H2403       H  0.60121068  0.50098138  0.85128735     0.13730
H2404       H  0.59975198  0.98733829  0.80023517     0.14300
C2405       C  0.91212629  0.53127256  0.82306705    -0.15300
C2406       C  0.92659585  0.55437148  0.84019087    -0.30470
H2407       H  0.89169408  0.01648686  0.83471863     0.13730
H2408       H  0.94867476  0.56581535  0.82913486     0.14300
C2409       C  0.89360382  0.78187837  0.66757649    -0.15300
C2410       C  0.86756446  0.78576350  0.68943225    -0.30470
H2411       H  0.88919146  0.77665952  0.64085143     0.13730
H2412       H  0.87154953  0.78847646  0.71677258     0.14300
C2413       C  0.61400198  0.76313161  0.67895475    -0.15300
C2414       C  0.64367227  0.76792487  0.69213446    -0.30470
H2415       H  0.61258113  0.75743861  0.65187894     0.13730
H2416       H  0.64557799  0.77002214  0.71990171     0.14300
C2417       C  0.99388029  0.86785501  0.73467021    -0.15300
C2418       C  0.96972347  0.88119289  0.75366106    -0.30470
H2419       H  0.50614322  0.87604918  0.70332061     0.13730
H2420       H  0.94908125  0.86724887  0.76445983     0.14300
C2421       C  0.02630628  0.63022214  0.69310116    -0.15300
C2422       C  0.02129751  0.61256081  0.72236843    -0.30470
H2423       H  0.53420648  0.61417055  0.67428566     0.13730
H2424       H  0.02023127  0.62423979  0.74711779     0.14300
C2425       C  0.93433366  0.70206156  0.81886941    -0.15300
C2426       C  0.92296285  0.71939811  0.79168450    -0.30470
H2427       H  0.96021335  0.69636014  0.81937777     0.13730
H2428       H  0.89741130  0.72638956  0.79139387     0.14300
C2429       C  0.58975835  0.71196805  0.81118891    -0.15300
C2430       C  0.58004168  0.68402396  0.82685377    -0.30470
H2431       H  0.61239810  0.72316434  0.81790974     0.13730
H2432       H  0.55602434  0.67440480  0.82255880     0.14300
loop_ 
_geom_bond_atom_site_label_1 
_geom_bond_atom_site_label_2 
_geom_bond_distance 
_geom_bond_site_symmetry_2 
_ccdc_geom_bond_type 
O1           Ni7   1.906       .  S
O1         C1238   1.271       .  A
O2          Ni25   1.888       .  S
O2           C11   1.268       .  A
O3           Ni7   1.899       .  S
O3          Ni25   1.908       .  S
O3        Ni1235   1.936       .  S
O3           H26   0.967       .  S
C4           O21   1.282       .  A
C4           O13   1.278       .  A
C4          C605   1.459       .  S
O5          Ni24   1.921       .  S
O5         C1227   1.273   1_455  A
O6          Ni24   1.916       .  S
O6            C8   1.267       .  A
Ni7          O10   1.933       .  S
Ni7          O12   1.910       .  S
C8           O18   1.276       .  A
C8          C589   1.491       .  S
O9          Ni25   1.918       .  S
O9           C15   1.271       .  A
O10          C15   1.273       .  A
C11        O1221   1.273       .  A
C11         C593   1.445       .  S
O12          C14   1.268       .  A
O13         Ni24   1.915       .  S
C14          O20   1.278       .  A
C14         C602   1.482       .  S
C15         C585   1.474       .  S
H16          O17   0.966       .  S
O17         Ni19   1.863       .  S
O17         Ni24   1.884       .  S
O17       Ni1241   1.901   1_455  S
O18         Ni19   1.947       .  S
Ni19         O23   1.892       .  S
Ni19         O21   1.926       .  S
Ni19       O1219   1.937   1_455  S
O20         Ni25   1.961       .  S
C22          O23   1.264       .  A
C22        O1217   1.268   1_455  A
C22        C1813   1.444       .  S
Ni25       O1233   1.901       .  S
O27         Ni33   1.896       .  S
O27        C1264   1.277   1_455  A
O28        Ni659   1.863       .  S
O28        C1253   1.252       .  A
O29         Ni33   1.888   1_655  S
O29         Ni51   1.859   1_655  S
O29       Ni1261   1.919       .  S
O29        H1268   0.965       .  S
C30          O47   1.282       .  A
C30          O39   1.280       .  A
C30         C573   1.497       .  S
O31         Ni50   1.941       .  S
O31          C37   1.278       .  A
O32         Ni50   1.884       .  S
O32         C642   1.267       .  A
Ni33         O36   1.916       .  S
Ni33         O38   1.934       .  S
C34          O44   1.275       .  A
C34         O640   1.266       .  A
C34        C1189   1.466       .  S
O35        Ni659   1.926       .  S
O35         C649   1.276       .  A
O36          C41   1.277       .  A
C37        O1244   1.260       .  A
C37         C598   1.451       .  S
O38          C40   1.269       .  A
O39        Ni658   1.949       .  S
C40          O46   1.269       .  A
C40         C569   1.485       .  S
C41         O643   1.276       .  A
C41        C1186   1.471       .  S
H42          O43   0.966       .  S
O43         Ni45   1.897       .  S
O43       Ni1267   1.916       .  S
O43        Ni658   1.900       .  S
O44         Ni45   1.947       .  S
Ni45         O49   1.899       .  S
Ni45         O47   1.935       .  S
Ni45       O1245   1.920       .  S
O46         Ni51   1.923       .  S
C48          O49   1.273       .  A
C48        O1243   1.279       .  A
C48         C594   1.458       .  S
Ni50        O647   1.965       .  S
Ni50        O651   1.902       .  S
Ni51        O636   1.859       .  S
Ni51        O643   1.929       .  S
Ni51       O1259   1.918   1_455  S
H52        O1245   0.965       .  S
O53         Ni59   1.909       .  S
O53          C74   1.274       .  A
O54         Ni77   1.900       .  S
O54          C63   1.274       .  A
O55         Ni59   1.892       .  S
O55         Ni77   1.897       .  S
O55         Ni71   1.930       .  S
O55          H78   0.966       .  S
C56          O73   1.286       .  A
C56          O65   1.273       .  A
C56         C558   1.446       .  S
O57         Ni76   1.883       .  S
O57          C63   1.272       .  A
O58         Ni76   1.929       .  S
O58          C60   1.267       .  A
Ni59         O62   1.926       .  S
Ni59         O64   1.916       .  S
C60          O70   1.274       .  A
C60         C590   1.490       .  S
O61         Ni77   1.932       .  S
O61          C67   1.277       .  A
O62          C67   1.274       .  A
C63         C561   1.448       .  S
O64          C66   1.273       .  A
O65         Ni76   1.886       .  S
C66          O72   1.281       .  A
C66         C554   1.480       .  S
C67         C586   1.483       .  S
H68          O69   0.965       .  S
O69         Ni77   1.903       .  S
O69         Ni71   1.851       .  S
O69         Ni76   1.863       .  S
O70         Ni71   1.941       .  S
Ni71         O75   1.877       .  S
Ni71         O73   1.941       .  S
O72         Ni77   1.965       .  S
C74          O75   1.262       .  A
C74         C565   1.452       .  S
O79         Ni85   1.900       .  S
O79         C100   1.268       .  A
O80        Ni103   1.889       .  S
O80          C89   1.271       .  A
O81        Ni103   1.900       .  S
O81         Ni97   1.942       .  S
O81        Ni693   1.912       .  S
O81         H104   0.965       .  S
C82          O91   1.280       .  A
C82         O707   1.282       .  A
C82        C1157   1.468       .  S
O83        Ni102   1.893       .  S
O83          C89   1.271       .  A
O84        Ni102   1.915       .  S
O84          C86   1.266       .  A
Ni85         O90   1.909       .  S
Ni85        O696   1.924       .  S
Ni85        O689   1.913       .  S
C86          O96   1.277       .  A
C86         C574   1.496       .  S
O87        Ni103   1.939       .  S
O87          C93   1.273       .  A
O88        Ni693   1.927       .  S
O88          C93   1.268       .  A
C89         C562   1.441       .  S
O90         C700   1.274       .  A
O91        Ni102   1.902       .  S
C92          O98   1.285       .  A
C92         O698   1.272       .  A
C92        C1153   1.476       .  S
C93         C570   1.490       .  S
H94          O95   0.965       .  S
O95        Ni103   1.903       .  S
O95         Ni97   1.856       .  S
O95        Ni102   1.876       .  S
O96         Ni97   1.946       .  S
Ni97        O709   1.878       .  S
Ni97        O707   1.932       .  S
O98        Ni103   1.975       .  S
O99        Ni705   1.932       .  S
O99         C690   1.283       .  A
C100        O101   1.263       .  A
C100        C566   1.443       .  S
O101       Ni705   1.877       .  S
O105       Ni111   1.914       .  S
O105        C126   1.272       .  A
O106       Ni129   1.891       .  S
O106        C115   1.265       .  A
O107       Ni111   1.874       .  S
O107       Ni129   1.859       .  S
O107       Ni123   1.921       .  S
O107        H130   0.965       .  S
C108        O125   1.281       .  A
C108        O117   1.269       .  A
C108       C1141   1.500   1_545  S
O109       Ni128   1.906       .  S
O109        C115   1.268       .  A
O110       Ni128   1.917       .  S
O110        C112   1.276       .  A
Ni111       O114   1.931       .  S
Ni111       O116   1.907       .  S
C112        O122   1.275       .  A
C112        C550   1.459       .  S
O113       Ni129   1.938       .  S
O113        C119   1.283       .  A
O114        C119   1.283       .  A
C115        C541   1.452       .  S
O116        C118   1.266       .  A
O117       Ni128   1.929       .  S
C118        O124   1.277       .  A
C118        C530   1.492       .  S
C119        C553   1.481       .  S
H120        O121   0.966       .  S
O121       Ni129   1.953       .  S
O121       Ni123   1.904       .  S
O121       Ni128   1.907       .  S
O122       Ni123   1.941       .  S
Ni123       O127   1.896       .  S
Ni123       O125   1.955       .  S
O124       Ni129   1.948       .  S
C126        O127   1.272       .  A
C126        C538   1.444       .  S
O131       Ni137   1.926       .  S
O131        C152   1.277       .  A
O132       Ni155   1.892       .  S
O132        C141   1.270       .  A
O133       Ni137   1.895       .  S
O133       Ni155   1.905       .  S
O133       Ni149   1.926       .  S
O133        H156   0.966       .  S
C134        O151   1.280       .  A
C134        O143   1.274       .  A
C134        C557   1.457       .  S
O135       Ni154   1.907       .  S
O135        C141   1.280       .  A
O136       Ni154   1.948       .  S
O136        C138   1.273       .  A
Ni137       O140   1.936       .  S
Ni137       O142   1.915       .  S
C138        O148   1.272       .  A
C138        C521   1.496       .  S
O139       Ni155   1.927       .  S
O139        C145   1.275       .  A
O140        C145   1.276       .  A
C141        C537   1.456   1_455  S
O142        C144   1.273       .  A
O143       Ni154   1.907       .  S
C144        O150   1.279       .  A
C144        C546   1.486       .  S
C145       C1133   1.480   1_545  S
H146        O147   0.965       .  S
O147       Ni155   1.902       .  S
O147       Ni149   1.857       .  S
O147       Ni154   1.880       .  S
O148       Ni149   1.936       .  S
Ni149       O153   1.880       .  S
Ni149       O151   1.914       .  S
O150       Ni155   1.957       .  S
C152        O153   1.259       .  A
C152        C542   1.459       .  S
O157       Ni163   1.906       .  S
O157        C178   1.269       .  A
O158       Ni181   1.905       .  S
O158        C167   1.275       .  A
O159       Ni163   1.903       .  S
O159       Ni181   1.909       .  S
O159       Ni175   1.955       .  S
O159        H182   0.967       .  S
C160        O177   1.288       .  A
C160        O169   1.279       .  A
C160        C505   1.470       .  S
O161       Ni180   1.910       .  S
O161        C167   1.272       .  A
O162       Ni180   1.921       .  S
O162        C164   1.268       .  A
Ni163       O166   1.933       .  S
Ni163       O168   1.902       .  S
C164        O174   1.279       .  A
C164        C522   1.500       .  S
O165       Ni181   1.935       .  S
O165        C171   1.272       .  A
O166        C171   1.270       .  A
C167        C513   1.450   1_455  S
O168        C170   1.273       .  A
O169       Ni180   1.912       .  S
C170        O176   1.287       .  A
C170        C509   1.473       .  S
C171        C526   1.490       .  S
H172        O173   0.965       .  S
O173       Ni181   1.900       .  S
O173       Ni175   1.856       .  S
O173       Ni180   1.868       .  S
O174       Ni175   1.954       .  S
Ni175       O179   1.905       .  S
Ni175       O177   1.936       .  S
O176       Ni181   1.976       .  S
C178        O179   1.269       .  A
C178        C518   1.457       .  S
O183       Ni189   1.906       .  S
O183        C204   1.277       .  A
O184       Ni207   1.895       .  S
O184        C193   1.262       .  A
O185       Ni189   1.877       .  S
O185       Ni207   1.866       .  S
O185       Ni201   1.904       .  S
O185        H208   0.966       .  S
C186        O203   1.272       .  A
C186        O195   1.270       .  A
C186        C534   1.493       .  S
O187       Ni206   1.920       .  S
O187        C193   1.274       .  A
O188       Ni206   1.899       .  S
O188        C190   1.276       .  A
Ni189       O192   1.909       .  S
Ni189       O194   1.921       .  S
C190        O200   1.282       .  A
C190        C502   1.470       .  S
O191       Ni207   1.938       .  S
O191        C197   1.285       .  A
O192        C197   1.276       .  A
C193        C517   1.468       .  S
O194        C196   1.268       .  A
O195       Ni206   1.935       .  S
C196        O202   1.272       .  A
C196        C529   1.482       .  S
C197        C497   1.471       .  S
H198        O199   0.966       .  S
O199       Ni207   1.962       .  S
O199       Ni201   1.916       .  S
O199       Ni206   1.908       .  S
O200       Ni201   1.950       .  S
Ni201       O205   1.902       .  S
Ni201       O203   1.939       .  S
O202       Ni207   1.933       .  S
C204        O205   1.270       .  A
C204        C514   1.462       .  S
O209       Ni215   1.906       .  S
O209        C230   1.276       .  A
O210       Ni233   1.873       .  S
O210        C219   1.256       .  A
O211       Ni215   1.877       .  S
O211       Ni233   1.854       .  S
O211       Ni227   1.936       .  S
O211        H234   0.966       .  S
C212        O229   1.291       .  A
C212        O221   1.275       .  A
C212       C1093   1.510   1_545  S
O213       Ni232   1.913       .  S
O213        C219   1.268       .  A
O214       Ni232   1.922       .  S
O214        C216   1.270       .  A
Ni215       O218   1.926       .  S
Ni215       O220   1.922       .  S
C216        O226   1.257       .  A
C216        C582   1.455       .  S
O217       Ni233   1.939       .  S
O217        C223   1.281       .  A
O218        C223   1.279       .  A
C219        C493   1.437       .  S
O220        C222   1.271       .  A
O221       Ni232   1.911       .  S
C222        O228   1.279       .  A
C222        C481   1.491       .  S
C223        C601   1.483       .  S
H224        O225   0.966       .  S
O225       Ni233   1.934       .  S
O225       Ni227   1.899       .  S
O225       Ni232   1.914       .  S
O226       Ni227   1.885       .  S
Ni227       O231   1.886       .  S
Ni227       O229   1.968       .  S
O228       Ni233   1.946       .  S
C230        O231   1.270       .  A
C230        C489   1.441       .  S
O235       Ni241   1.914       .  S
O235        C256   1.270       .  A
O236       Ni259   1.903       .  S
O236        C245   1.271       .  A
O237       Ni241   1.905       .  S
O237       Ni259   1.910       .  S
O237       Ni253   1.946       .  S
O237        H260   0.966       .  S
C238        O255   1.283       .  A
C238        O247   1.277       .  A
C238        C606   1.464       .  S
O239       Ni258   1.889       .  S
O239        C245   1.272       .  A
O240       Ni258   1.918       .  S
O240        C242   1.266       .  A
Ni241       O244   1.927       .  S
Ni241       O246   1.913       .  S
C242        O252   1.278       .  A
C242        C473   1.496       .  S
O243       Ni259   1.935       .  S
O243        C249   1.275       .  A
O244        C249   1.270       .  A
C245        C490   1.456       .  S
O246        C248   1.275       .  A
O247       Ni258   1.899       .  S
C248        O254   1.278       .  A
C248        C577   1.463       .  S
C249       C1085   1.487   1_545  S
H250        O251   0.965       .  S
O251       Ni259   1.910       .  S
O251       Ni253   1.858       .  S
O251       Ni258   1.872       .  S
O252       Ni253   1.951       .  S
Ni253       O257   1.890       .  S
Ni253       O255   1.938       .  S
O254       Ni259   1.950       .  S
C256        O257   1.265       .  A
C256        C494   1.458       .  S
O261       Ni267   1.918       .  S
O261        C282   1.274       .  A
O262       Ni285   1.901       .  S
O262        C271   1.273       .  A
O263       Ni267   1.904       .  S
O263       Ni285   1.919       .  S
O263       Ni279   1.942       .  S
O263        H286   0.966       .  S
C264        O281   1.281       .  A
C264        O273   1.277       .  A
C264        C462   1.442       .  S
O265       Ni284   1.921   1_556  S
O265        C271   1.277       .  A
O266       Ni284   1.930   1_556  S
O266        C268   1.269       .  A
Ni267       O270   1.928       .  S
Ni267       O272   1.903   1_556  S
C268        O278   1.271       .  A
C268        C474   1.490       .  S
O269       Ni285   1.921       .  S
O269        C275   1.269       .  A
O270        C275   1.271       .  A
C271        C466   1.453       .  S
O272        C274   1.272       .  A
O273       Ni284   1.907       .  S
C274        O280   1.284       .  A
C274        C458   1.479       .  S
C275        C478   1.477       .  S
H276        O277   0.966       .  S
O277       Ni285   1.890   1_554  S
O277       Ni279   1.858   1_554  S
O277       Ni284   1.878       .  S
O278       Ni279   1.935       .  S
Ni279       O283   1.891       .  S
Ni279       O281   1.916   1_556  S
O280       Ni285   1.965   1_554  S
C282        O283   1.261       .  A
C282        C469   1.465       .  S
O287       Ni293   1.914       .  S
O287        C308   1.281       .  A
O288       Ni311   1.908       .  S
O288        C297   1.268       .  A
O289       Ni293   1.874       .  S
O289       Ni311   1.862   1_554  S
O289       Ni305   1.914   1_554  S
O289        H312   0.965       .  S
C290        O307   1.277       .  A
C290        O299   1.267       .  A
C290        C486   1.502       .  S
O291       Ni310   1.905       .  S
O291        C297   1.267       .  A
O292       Ni310   1.909   1_554  S
O292        C294   1.278       .  A
Ni293       O296   1.917       .  S
Ni293       O298   1.921   1_554  S
C294        O304   1.288       .  A
C294        C449   1.468       .  S
O295       Ni311   1.950   1_554  S
O295        C301   1.288       .  A
O296        C301   1.279       .  A
C297        C470   1.462       .  S
O298        C300   1.269       .  A
O299       Ni310   1.924       .  S
C300        O306   1.275       .  A
C300        C482   1.488       .  S
C301        C454   1.480       .  S
H302        O303   0.966       .  S
O303       Ni311   1.967       .  S
O303       Ni305   1.911       .  S
O303       Ni310   1.898       .  S
O304       Ni305   1.960   1_554  S
Ni305       O309   1.905   1_556  S
Ni305       O307   1.966       .  S
O306       Ni311   1.940       .  S
C308        O309   1.275       .  A
C308        C465   1.465       .  S
O313       Ni319   1.904       .  S
O313        C334   1.267       .  A
O314       Ni337   1.904       .  S
O314        C323   1.273       .  A
O315       Ni319   1.906       .  S
O315       Ni337   1.912       .  S
O315       Ni331   1.951       .  S
O315        H338   0.966       .  S
C316        O333   1.284       .  A
C316        O325   1.276       .  A
C316        C506   1.458       .  S
O317       Ni336   1.911       .  S
O317        C323   1.280       .  A
O318       Ni336   1.934       .  S
O318        C320   1.271       .  A
Ni319       O322   1.921       .  S
Ni319       O324   1.902       .  S
C320        O330   1.275       .  A
C320        C438   1.492       .  S
O321       Ni337   1.929       .  S
O321        C327   1.272       .  A
O322        C327   1.266       .  A
C323        C441   1.466       .  S
O324        C326   1.274       .  A
O325       Ni336   1.907       .  S
C326        O332   1.283       .  A
C326        C498   1.463       .  S
C327        C434   1.476       .  S
H328        O329   0.965       .  S
O329       Ni337   1.894       .  S
O329       Ni331   1.859       .  S
O329       Ni336   1.868       .  S
O330       Ni331   1.938       .  S
Ni331       O335   1.900       .  S
Ni331       O333   1.937       .  S
O332       Ni337   1.955       .  S
C334        O335   1.268       .  A
C334        C445   1.456       .  S
O339       Ni345   1.917       .  S
O339        C360   1.275       .  A
O340       Ni363   1.886       .  S
O340        C349   1.260       .  A
O341       Ni345   1.872   1_565  S
O341       Ni357   1.907       .  S
O341       Ni971   1.859       .  S
O341        H364   0.965       .  S
C342        O359   1.275       .  A
C342        O959   1.270       .  A
C342        C429   1.502       .  S
O343       Ni362   1.923       .  S
O343        C349   1.275       .  A
O344       Ni362   1.899       .  S
O344        C346   1.274       .  A
Ni345       O348   1.927   1_545  S
Ni345       O350   1.913   1_545  S
C346        O964   1.283       .  A
C346        C501   1.460       .  S
O347       Ni363   1.936       .  S
O347        C353   1.284       .  A
O348        C961   1.282       .  A
C349        C446   1.463       .  S
O350        C352   1.267       .  A
O351       Ni362   1.939       .  S
O351        C950   1.271       .  A
C352        O966   1.274       .  A
C352       C1033   1.492       .  S
C353        O956   1.280       .  A
C353        C510   1.483       .  S
H354        O355   0.966       .  S
O355       Ni363   1.956       .  S
O355       Ni362   1.906       .  S
O355       Ni965   1.907       .  S
O356       Ni357   1.964       .  S
O356        C954   1.287       .  A
Ni357       O361   1.905   1_565  S
Ni357       O359   1.948       .  S
Ni357       O963   1.902       .  S
O358       Ni363   1.937       .  S
O358        C960   1.272       .  A
C360        O361   1.275       .  A
C360        C442   1.452       .  S
Ni363       O949   1.857       .  S
O365       Ni371   1.912       .  S
O365        C386   1.270       .  A
O366       Ni389   1.910       .  S
O366        C375   1.272       .  A
O367       Ni371   1.907       .  S
O367       Ni389   1.914       .  S
O367      Ni1599   1.948       .  S
O367        H390   0.967       .  S
C368        O385   1.280       .  A
C368        O377   1.277       .  A
C368        C461   1.458       .  S
O369       Ni388   1.902       .  S
O369       C1591   1.272   1_455  A
O370       Ni388   1.919       .  S
O370        C372   1.269       .  A
Ni371       O374   1.940       .  S
Ni371       O376   1.903       .  S
C372        O382   1.277       .  A
C372        C437   1.494       .  S
O373       Ni389   1.923       .  S
O373        C379   1.269       .  A
O374        C379   1.272       .  A
C375       O1585   1.271       .  A
C375        C417   1.452       .  S
O376        C378   1.270       .  A
O377       Ni388   1.895       .  S
C378        O384   1.286       .  A
C378        C453   1.478       .  S
C379        C433   1.483       .  S
H380        O381   0.966       .  S
O381       Ni383   1.866       .  S
O381       Ni388   1.877       .  S
O381      Ni1605   1.900   1_455  S
O382       Ni383   1.947       .  S
Ni383       O387   1.896       .  S
Ni383       O385   1.924       .  S
Ni383      O1583   1.947   1_455  S
O384       Ni389   1.975       .  S
C386       O1603   1.267       .  A
C386        C421   1.459       .  S
O387       C1602   1.266       .  A
Ni389      O1597   1.902       .  S
O391       Ni397   1.902       .  S
O391       C1628   1.273   1_455  A
O392       Ni415   1.894       .  S
O392       C1617   1.263       .  A
O393       Ni397   1.875   1_565  S
O393      Ni1023   1.872       .  S
O393      Ni1625   1.917   1_455  S
O393       H1632   0.966   1_455  S
C394        O411   1.279       .  A
C394       O1011   1.273       .  A
C394        C430   1.491       .  S
O395       Ni414   1.918       .  S
O395        C401   1.273       .  A
O396       Ni414   1.912       .  S
O396        C398   1.276       .  A
Ni397       O402   1.915       .  S
Ni397      O1008   1.916   1_545  S
C398       O1016   1.278       .  A
C398        C450   1.469       .  S
O399       Ni415   1.956       .  S
O399        C405   1.286       .  A
O400      Ni1005   1.912       .  S
O400        C405   1.277       .  A
C401       O1608   1.263       .  A
C401        C422   1.470       .  S
O402       C1012   1.266   1_545  A
O403       Ni414   1.935       .  S
O403       C1002   1.271       .  A
C404        O410   1.271       .  A
C404       O1010   1.268       .  A
C404        C426   1.483       .  S
C405        C457   1.482       .  S
H406        O407   0.966       .  S
O407       Ni414   1.908       .  S
O407      Ni1631   1.958       .  S
O407      Ni1017   1.919       .  S
O408       Ni409   1.943       .  S
O408       C1006   1.277       .  A
Ni409       O413   1.913   1_565  S
Ni409       O411   1.942       .  S
Ni409      O1609   1.923       .  S
Ni409      O1015   1.914       .  S
O410       Ni415   1.934       .  S
C412        O413   1.272       .  A
C412       O1607   1.276       .  A
C412        C418   1.469       .  S
Ni415      O1001   1.869       .  S
Ni415      O1623   1.954   1_455  S
H416       O1609   0.966       .  S
C417        C418   1.339       .  D
C417        H419   1.088       .  S
C418        H420   1.086       .  S
C421        C422   1.341       .  D
C421        H423   1.088       .  S
C422       H1640   1.087       .  S
H424       C1638   1.087       .  S
C425        C960   1.486       .  S
C425        C426   1.351       .  D
C425        H427   1.087       .  S
C426       H1036   1.086       .  S
H428       C1034   1.086   1_545  S
C429        C430   1.358       .  D
C429        H431   1.086       .  S
C430       H1040   1.087       .  S
H432       C1038   1.087       .  S
C433        C434   1.348       .  D
C433        H435   1.086       .  S
C434        H436   1.088       .  S
C437        C438   1.358       .  D
C437        H439   1.086       .  S
C438        H440   1.087       .  S
C441        C442   1.338       .  D
C441        H443   1.086       .  S
C442        H444   1.089       .  S
C445        C446   1.335       .  D
C445        H447   1.089       .  S
C446        H448   1.087       .  S
C449        C450   1.339       .  D
C449        H451   1.087       .  S
C450        H452   1.087       .  S
C453        C454   1.340       .  D
C453        H455   1.087       .  S
C454        H456   1.087       .  S
C457        C458   1.344       .  D
C457        H459   1.089       .  S
C458        H460   1.086       .  S
C461        C462   1.338       .  D
C461        H463   1.088       .  S
C462        H464   1.086       .  S
C465        C466   1.340   1_554  D
C465        H467   1.086       .  S
C466        H468   1.089       .  S
C469       C1686   1.335   1_455  D
C469        H471   1.087       .  S
C470       C1685   1.335       .  D
C470        H472   1.089       .  S
C473        C474   1.359       .  D
C473        H475   1.087       .  S
C474        H476   1.086       .  S
C477        C857   1.485       .  S
C477        C478   1.353       .  D
C477       H1087   1.086       .  S
C478        H480   1.089       .  S
H479       C1085   1.086       .  S
C481        C482   1.357       .  D
C481        H483   1.087       .  S
C482        H484   1.086       .  S
C485        C820   1.512       .  S
C485        C486   1.359       .  D
C485       H1095   1.085       .  S
C486        H488   1.088       .  S
H487       C1093   1.086       .  S
C489        C490   1.340       .  D
C489        H491   1.088       .  S
C490        H492   1.087       .  S
C493       C1710   1.331       .  D
C493        H495   1.089       .  S
C494       C1709   1.336   1_455  D
C494        H496   1.089       .  S
C497        C498   1.336       .  D
C497        H499   1.088       .  S
C498        H500   1.086       .  S
C501        C502   1.341       .  D
C501        H503   1.086       .  S
C502        H504   1.087       .  S
C505        C506   1.333       .  D
C505        H507   1.088       .  S
C506        H508   1.086       .  S
C509        C510   1.344       .  D
C509        H511   1.087       .  S
C510        H512   1.087       .  S
C513       C1730   1.336       .  D
C513        H515   1.089       .  S
C514       C1729   1.338       .  D
C514        H516   1.086       .  S
C517        C518   1.337       .  D
C517        H519   1.087       .  S
C518        H520   1.088       .  S
C521        C522   1.360       .  D
C521        H523   1.086       .  S
C522        H524   1.086       .  S
C525        C753   1.479       .  S
C525        C526   1.352       .  D
C525       H1135   1.088       .  S
C526        H528   1.086       .  S
H527       C1133   1.088       .  S
C529        C530   1.356       .  D
C529        H531   1.086       .  S
C530        H532   1.087       .  S
C533        C716   1.502       .  S
C533        C534   1.362       .  D
C533       H1143   1.085       .  S
C534        H536   1.088       .  S
H535       C1141   1.085       .  S
C537       C1754   1.337       .  D
C537        H539   1.086       .  S
C538       C1753   1.337       .  D
C538        H540   1.089       .  S
C541        C542   1.332       .  D
C541        H543   1.089       .  S
C542        H544   1.087       .  S
C545        C700   1.477       .  S
C545        C546   1.346       .  D
C545        H547   1.086       .  S
C546        H548   1.087       .  S
C549        C690   1.470       .  S
C549        C550   1.339       .  D
C549        H551   1.087       .  S
C550        H552   1.087       .  S
C553        C554   1.345       .  D
C553        H555   1.087       .  S
C554        H556   1.086       .  S
C557        C558   1.333       .  D
C557        H559   1.087       .  S
C558        H560   1.088       .  S
C561        C562   1.343       .  D
C561        H563   1.087       .  S
C562        H564   1.087       .  S
C565        C566   1.335       .  D
C565        H567   1.088       .  S
C566        H568   1.088       .  S
C569        C570   1.354       .  D
C569        H571   1.088       .  S
C570        H572   1.086       .  S
C573        C574   1.360       .  D
C573        H575   1.086       .  S
C574        H576   1.087       .  S
C577        C578   1.335       .  D
C577        H579   1.087   1_545  S
C578        C649   1.470       .  S
C578       H1188   1.087       .  S
H580       C1186   1.087       .  S
C581        C642   1.460       .  S
C581        C582   1.332       .  D
C581       H1191   1.086   1_545  S
C582        H584   1.089       .  S
H583       C1189   1.086       .  S
C585        C586   1.351       .  D
C585        H587   1.088       .  S
C586        H588   1.086       .  S
C589        C590   1.358       .  D
C589        H591   1.087       .  S
C590        H592   1.086       .  S
C593        C594   1.340       .  D
C593       H1811   1.089       .  S
C594        H596   1.086       .  S
H595       C1809   1.089   1_455  S
C597       C1238   1.454       .  S
C597        C598   1.336       .  D
C597       H1815   1.087       .  S
C598        H600   1.090       .  S
H599       C1813   1.087       .  S
C601        C602   1.347       .  D
C601        H603   1.087       .  S
C602        H604   1.086       .  S
C605        C606   1.339       .  D
C605        H607   1.087       .  S
C606        H608   1.087       .  S
O609       Ni615   1.899       .  S
O609       C1846   1.269       .  A
O610       Ni633   1.863       .  S
O610        C619   1.261       .  A
O611       Ni615   1.904       .  S
O611       Ni633   1.898       .  S
O611      Ni1843   1.936       .  S
O611        H634   0.967       .  S
C612        O629   1.284       .  A
C612        O621   1.278       .  A
C612       C1213   1.464       .  S
O613       Ni632   1.919       .  S
O613       C1835   1.273   1_455  A
O614       Ni632   1.914       .  S
O614        C616   1.266       .  A
Ni615       O618   1.928       .  S
Ni615       O620   1.916       .  S
C616        O626   1.278       .  A
C616       C1197   1.492       .  S
O617       Ni633   1.916       .  S
O617        C623   1.269       .  A
O618        C623   1.270       .  A
C619       O1829   1.275       .  A
C619       C1201   1.434       .  S
O620        C622   1.271       .  A
O621       Ni632   1.915       .  S
C622        O628   1.275       .  A
C622       C1210   1.474       .  S
C623       C1193   1.471       .  S
H624        O625   0.966       .  S
O625      Ni1849   1.903   1_455  S
O625       Ni627   1.863       .  S
O625       Ni632   1.884       .  S
O626       Ni627   1.950       .  S
Ni627       O631   1.893       .  S
Ni627       O629   1.931       .  S
Ni627      O1827   1.941   1_455  S
O628       Ni633   1.951       .  S
C630       O1825   1.267   1_455  A
C630        O631   1.265       .  A
C630       C2421   1.443       .  S
Ni633      O1841   1.895       .  S
O635       Ni641   1.897       .  S
O635       C1872   1.277   1_455  A
O636       C1861   1.251       .  A
O637       Ni641   1.885   1_655  S
O637       Ni659   1.861   1_665  S
O637      Ni1869   1.917       .  S
O637       H1876   0.965       .  S
C638        O655   1.276       .  A
C638        O647   1.281   1_565  A
C638       C1181   1.504       .  S
O639       Ni658   1.943       .  S
O639        C645   1.276       .  A
O640       Ni658   1.891       .  S
Ni641       O644   1.914       .  S
Ni641       O646   1.932       .  S
C642        O652   1.270   1_545  A
O644        C649   1.278   1_565  A
C645       O1852   1.250       .  A
C645       C1206   1.442       .  S
O646        C648   1.269       .  A
C648        O654   1.271       .  A
C648       C1177   1.486       .  S
H650        O651   0.966       .  S
O651      Ni1875   1.937       .  S
O651       Ni653   1.898   1_545  S
O652       Ni653   1.930       .  S
Ni653       O657   1.889       .  S
Ni653       O655   1.927       .  S
Ni653      O1853   1.913       .  S
O654       Ni659   1.927   1_565  S
C656       O1851   1.272       .  A
C656        O657   1.263       .  A
C656       C1202   1.448       .  S
Ni659      O1867   1.916   1_455  S
H660       O1853   0.966       .  S
O661       Ni667   1.912       .  S
O661        C682   1.274       .  A
O662       Ni685   1.896       .  S
O662        C671   1.272       .  A
O663       Ni667   1.895       .  S
O663       Ni685   1.898       .  S
O663       Ni679   1.929       .  S
O663        H686   0.966       .  S
C664        O681   1.285       .  A
C664        O673   1.273       .  A
C664       C1166   1.444       .  S
O665       Ni684   1.890       .  S
O665        C671   1.274       .  A
O666       Ni684   1.929       .  S
O666        C668   1.268       .  A
Ni667       O670   1.931       .  S
Ni667       O672   1.916       .  S
C668        O678   1.275       .  A
C668       C1198   1.491       .  S
O669       Ni685   1.924       .  S
O669        C675   1.274       .  A
O670        C675   1.274       .  A
C671       C1169   1.452       .  S
O672        C674   1.273       .  A
O673       Ni684   1.887       .  S
C674        O680   1.281       .  A
C674       C1162   1.481       .  S
C675       C1194   1.477       .  S
H676        O677   0.965       .  S
O677       Ni685   1.898       .  S
O677       Ni679   1.855       .  S
O677       Ni684   1.866       .  S
O678       Ni679   1.942       .  S
Ni679       O683   1.881       .  S
Ni679       O681   1.937       .  S
O680       Ni685   1.966       .  S
C682        O683   1.263       .  A
C682       C1173   1.455       .  S
O687       Ni693   1.905       .  S
O687        C708   1.269       .  A
O688       Ni711   1.883       .  S
O688        C697   1.271       .  A
O689       Ni711   1.896   1_545  S
O689       Ni705   1.944       .  S
O689        H712   0.969       .  S
C690        O699   1.280       .  A
O691       Ni710   1.904       .  S
O691        C697   1.275       .  A
O692       Ni710   1.923       .  S
O692        C694   1.270       .  A
Ni693       O698   1.907       .  S
C694        O704   1.277   1_565  A
C694       C1182   1.505   1_565  S
O695       Ni711   1.944       .  S
O695        C701   1.274       .  A
O696        C701   1.266   1_545  A
C697       C1170   1.442       .  S
O699       Ni710   1.906   1_545  S
C700        O706   1.286   1_545  A
C701       C1178   1.491       .  S
H702        O703   0.965       .  S
O703       Ni711   1.902       .  S
O703       Ni705   1.857   1_565  S
O703       Ni710   1.878       .  S
O704       Ni705   1.949       .  S
O706       Ni711   1.977       .  S
C708        O709   1.263       .  A
C708       C1174   1.448       .  S
O713       Ni719   1.913       .  S
O713        C734   1.272       .  A
O714       Ni737   1.892       .  S
O714        C723   1.265       .  A
O715       Ni719   1.874       .  S
O715       Ni737   1.858       .  S
O715       Ni731   1.922       .  S
O715        H738   0.965       .  S
C716        O733   1.282       .  A
C716        O725   1.270       .  A
O717       Ni736   1.907       .  S
O717        C723   1.268       .  A
O718       Ni736   1.916       .  S
O718        C720   1.276       .  A
Ni719       O722   1.929       .  S
Ni719       O724   1.906       .  S
C720        O730   1.274       .  A
C720       C1158   1.457       .  S
O721       Ni737   1.943       .  S
O721        C727   1.284       .  A
O722        C727   1.282       .  A
C723       C1149   1.451       .  S
O724        C726   1.265       .  A
O725       Ni736   1.928       .  S
C726        O732   1.278       .  A
C726       C1138   1.489       .  S
C727       C1161   1.483       .  S
H728        O729   0.967       .  S
O729       Ni737   1.953       .  S
O729       Ni731   1.906       .  S
O729       Ni736   1.906       .  S
O730       Ni731   1.938       .  S
Ni731       O735   1.899       .  S
Ni731       O733   1.956       .  S
O732       Ni737   1.949       .  S
C734        O735   1.273       .  A
C734       C1146   1.445       .  S
O739       Ni745   1.929       .  S
O739        C760   1.277       .  A
O740       Ni763   1.897       .  S
O740        C749   1.272       .  A
O741       Ni745   1.895       .  S
O741       Ni763   1.905       .  S
O741       Ni757   1.925       .  S
O741        H764   0.966       .  S
C742        O759   1.279       .  A
C742        O751   1.275       .  A
C742       C1165   1.456       .  S
O743       Ni762   1.908       .  S
O743        C749   1.281       .  A
O744       Ni762   1.951       .  S
O744        C746   1.273       .  A
Ni745       O748   1.934       .  S
Ni745       O750   1.916       .  S
C746        O756   1.273       .  A
C746       C1129   1.497       .  S
O747       Ni763   1.929       .  S
O747        C753   1.277       .  A
O748        C753   1.275       .  A
C749       C1145   1.459   1_455  S
O750        C752   1.274       .  A
O751       Ni762   1.909       .  S
C752        O758   1.279       .  A
C752       C1154   1.483       .  S
H754        O755   0.965       .  S
O755       Ni763   1.904       .  S
O755       Ni757   1.855       .  S
O755       Ni762   1.879       .  S
O756       Ni757   1.935       .  S
Ni757       O761   1.879       .  S
Ni757       O759   1.910       .  S
O758       Ni763   1.955       .  S
C760        O761   1.258       .  A
C760       C1150   1.459       .  S
O765       Ni771   1.905       .  S
O765        C786   1.268       .  A
O766       Ni789   1.916       .  S
O766        C775   1.278       .  A
O767       Ni771   1.904       .  S
O767       Ni789   1.914       .  S
O767       Ni783   1.947       .  S
O767        H790   0.967       .  S
C768        O785   1.281       .  A
C768        O777   1.280       .  A
C768       C1113   1.454       .  S
O769       Ni788   1.907       .  S
O769        C775   1.272       .  A
O770       Ni788   1.919       .  S
O770        C772   1.269       .  A
Ni771       O774   1.926       .  S
Ni771       O776   1.904       .  S
C772        O782   1.283       .  A
C772       C1130   1.504       .  S
O773       Ni789   1.939       .  S
O773        C779   1.275       .  A
O774        C779   1.270       .  A
C775       C1121   1.454   1_455  S
O776        C778   1.271       .  A
O777       Ni788   1.912       .  S
C778        O784   1.285       .  A
C778       C1117   1.475       .  S
C779       C1134   1.490       .  S
H780        O781   0.964       .  S
O781       Ni789   1.902       .  S
O781       Ni783   1.859       .  S
O781       Ni788   1.859       .  S
O782       Ni783   1.961       .  S
Ni783       O787   1.903       .  S
Ni783       O785   1.927       .  S
O784       Ni789   1.975       .  S
C786        O787   1.270       .  A
C786       C1126   1.457       .  S
O791       Ni797   1.919       .  S
O791        C812   1.281       .  A
O792       Ni815   1.885       .  S
O792        C801   1.261       .  A
O793       Ni797   1.880       .  S
O793       Ni815   1.867       .  S
O793       Ni809   1.915       .  S
O793        H816   0.965       .  S
C794        O811   1.278       .  A
C794        O803   1.275       .  A
C794       C1142   1.492       .  S
O795       Ni814   1.937       .  S
O795        C801   1.279       .  A
O796       Ni814   1.912       .  S
O796        C798   1.275       .  A
Ni797       O800   1.915       .  S
Ni797       O802   1.931       .  S
C798        O808   1.277       .  A
C798       C1110   1.474       .  S
O799       Ni815   1.943       .  S
O799        C805   1.281       .  A
O800        C805   1.280       .  A
C801       C1125   1.468       .  S
O802        C804   1.270       .  A
O803       Ni814   1.941       .  S
C804        O810   1.271       .  A
C804       C1137   1.482       .  S
C805       C1105   1.481       .  S
H806        O807   0.966       .  S
O807       Ni815   1.942       .  S
O807       Ni809   1.910       .  S
O807       Ni814   1.903       .  S
O808       Ni809   1.941       .  S
Ni809       O813   1.903       .  S
Ni809       O811   1.940       .  S
O810       Ni815   1.929       .  S
C812        O813   1.271       .  A
C812       C1122   1.470       .  S
O817       Ni823   1.902       .  S
O817        C838   1.274       .  A
O818       Ni841   1.889       .  S
O818        C827   1.259       .  A
O819       Ni823   1.885       .  S
O819       Ni841   1.860       .  S
O819       Ni835   1.923       .  S
O819        H842   0.965       .  S
C820        O837   1.281       .  A
C820        O829   1.272       .  A
O821       Ni840   1.918       .  S
O821        C827   1.273       .  A
O822       Ni840   1.907       .  S
O822        C824   1.273       .  A
Ni823       O826   1.917       .  S
Ni823       O828   1.933       .  S
C824        O834   1.279       .  A
C824       C1190   1.462       .  S
O825       Ni841   1.941       .  S
O825        C831   1.282       .  A
O826        C831   1.279       .  A
C827       C1101   1.468       .  S
O828        C830   1.270       .  A
O829       Ni840   1.926       .  S
C830        O836   1.273       .  A
C830       C1089   1.494       .  S
C831       C1209   1.483       .  S
H832        O833   0.966       .  S
O833       Ni841   1.956       .  S
O833       Ni835   1.924       .  S
O833       Ni840   1.907       .  S
O834       Ni835   1.946       .  S
Ni835       O839   1.914       .  S
Ni835       O837   1.953       .  S
O836       Ni841   1.939       .  S
C838        O839   1.277       .  A
C838       C1097   1.454       .  S
O843       Ni849   1.910       .  S
O843        C864   1.268       .  A
O844       Ni867   1.906       .  S
O844        C853   1.272       .  A
O845       Ni849   1.907       .  S
O845       Ni867   1.914       .  S
O845       Ni861   1.944       .  S
O845        H868   0.966       .  S
C846        O863   1.279       .  A
C846        O855   1.278       .  A
C846       C1214   1.463       .  S
O847       Ni866   1.913       .  S
O847        C853   1.279       .  A
O848       Ni866   1.924       .  S
O848        C850   1.269       .  A
Ni849       O852   1.921       .  S
Ni849       O854   1.914       .  S
C850        O860   1.277       .  A
C850       C1081   1.495       .  S
O851       Ni867   1.934       .  S
O851        C857   1.274       .  A
O852        C857   1.269       .  A
C853       C1098   1.471       .  S
O854        C856   1.276       .  A
O855       Ni866   1.913       .  S
C856        O862   1.280       .  A
C856       C1185   1.467       .  S
H858        O859   0.965       .  S
O859       Ni867   1.908       .  S
O859       Ni861   1.867       .  S
O859       Ni866   1.880       .  S
O860       Ni861   1.947       .  S
Ni861       O865   1.898       .  S
Ni861       O863   1.927       .  S
O862       Ni867   1.957       .  S
C864        O865   1.266       .  A
C864       C1102   1.461       .  S
O869       Ni875   1.922       .  S
O869        C890   1.275       .  A
O870       Ni893   1.901       .  S
O870        C879   1.273       .  A
O871       Ni875   1.903       .  S
O871       Ni893   1.920       .  S
O871       Ni887   1.938       .  S
O871        H894   0.966       .  S
C872        O889   1.280       .  A
C872        O881   1.278       .  A
C872       C1070   1.441       .  S
O873       Ni892   1.916   1_556  S
O873        C879   1.275       .  A
O874       Ni892   1.930   1_556  S
O874        C876   1.269       .  A
Ni875       O878   1.926       .  S
Ni875       O880   1.903       .  S
C876        O886   1.274       .  A
C876       C1082   1.494       .  S
O877       Ni893   1.927       .  S
O877        C883   1.273       .  A
O878        C883   1.272       .  A
C879       C1074   1.449       .  S
O880        C882   1.271   1_556  A
O881       Ni892   1.905       .  S
C882        O888   1.279       .  A
C882       C1066   1.477       .  S
C883       C1086   1.481       .  S
H884        O885   0.966       .  S
O885       Ni893   1.894   1_554  S
O885       Ni887   1.857   1_554  S
O885       Ni892   1.871       .  S
O886       Ni887   1.941       .  S
Ni887       O891   1.891       .  S
Ni887       O889   1.920   1_556  S
O888       Ni893   1.954   1_554  S
C890        O891   1.261       .  A
C890       C1077   1.465       .  S
O895       Ni901   1.916       .  S
O895        C916   1.282       .  A
O896       Ni919   1.903       .  S
O896        C905   1.268       .  A
O897       Ni901   1.878       .  S
O897       Ni919   1.862   1_554  S
O897       Ni913   1.906   1_554  S
O897        H920   0.965       .  S
C898        O915   1.274       .  A
C898        O907   1.269       .  A
C898       C1094   1.500       .  S
O899       Ni918   1.913       .  S
O899        C905   1.270       .  A
O900       Ni918   1.909   1_554  S
O900        C902   1.276       .  A
Ni901       O904   1.916       .  S
Ni901       O906   1.924   1_554  S
C902        O912   1.287       .  A
C902       C1057   1.469       .  S
O903       Ni919   1.944   1_554  S
O903        C909   1.286       .  A
O904        C909   1.278       .  A
C905       C1078   1.465       .  S
O906        C908   1.271       .  A
O907       Ni918   1.936       .  S
C908        O914   1.276       .  A
C908       C1090   1.494       .  S
C909       C1062   1.474       .  S
H910        O911   0.966       .  S
O911       Ni919   1.964       .  S
O911       Ni913   1.910       .  S
O911       Ni918   1.903       .  S
O912       Ni913   1.962   1_554  S
Ni913       O917   1.897   1_556  S
Ni913       O915   1.954       .  S
O914       Ni919   1.943       .  S
C916        O917   1.272       .  A
C916       C1073   1.461       .  S
O921       Ni927   1.915       .  S
O921        C942   1.269       .  A
O922       Ni945   1.898       .  S
O922        C931   1.270       .  A
O923       Ni927   1.911       .  S
O923       Ni945   1.918       .  S
O923       Ni939   1.947       .  S
O923        H946   0.966       .  S
C924        O941   1.284       .  A
C924        O933   1.276       .  A
C924       C1114   1.463       .  S
O925       Ni944   1.909       .  S
O925        C931   1.278       .  A
O926       Ni944   1.934       .  S
O926        C928   1.271       .  A
Ni927       O930   1.921       .  S
Ni927       O932   1.897       .  S
C928        O938   1.274       .  A
C928       C1046   1.492       .  S
O929       Ni945   1.920       .  S
O929        C935   1.268       .  A
O930        C935   1.271       .  A
C931       C1049   1.463       .  S
O932        C934   1.271       .  A
O933       Ni944   1.893       .  S
C934        O940   1.283       .  A
C934       C1106   1.469       .  S
C935       C1042   1.490       .  S
H936        O937   0.966       .  S
O937       Ni945   1.892       .  S
O937       Ni939   1.862       .  S
O937       Ni944   1.879       .  S
O938       Ni939   1.937       .  S
Ni939       O943   1.892       .  S
Ni939       O941   1.939       .  S
O940       Ni945   1.955       .  S
C942        O943   1.265       .  A
C942       C1053   1.457       .  S
O947       Ni953   1.918       .  S
O947        C968   1.275       .  A
O948       Ni971   1.899       .  S
O948        C957   1.265       .  A
O949       Ni953   1.879       .  S
O949       Ni965   1.908       .  S
O949        H972   0.966       .  S
C950        O967   1.276       .  A
C950       C1037   1.501       .  S
O951       Ni970   1.915       .  S
O951        C957   1.273       .  A
O952       Ni970   1.902       .  S
O952        C954   1.276       .  A
Ni953       O956   1.925       .  S
Ni953       O958   1.920       .  S
C954       C1109   1.463       .  S
O955       Ni971   1.938       .  S
O955        C961   1.287       .  A
C957       C1054   1.467       .  S
O958        C960   1.268       .  A
O959       Ni970   1.940       .  S
C961       C1118   1.482       .  S
H962        O963   0.966       .  S
O963       Ni971   1.961       .  S
O963       Ni970   1.903       .  S
O964       Ni965   1.955       .  S
Ni965       O969   1.905       .  S
Ni965       O967   1.944       .  S
O966       Ni971   1.940       .  S
C968        O969   1.274       .  A
C968       C1050   1.451       .  S
O973       Ni979   1.905       .  S
O973        C994   1.267       .  A
O974       Ni997   1.904       .  S
O974        C983   1.273       .  A
O975       Ni979   1.906       .  S
O975       Ni997   1.917       .  S
O975      Ni2207   1.953       .  S
O975        H998   0.967       .  S
C976        O993   1.281       .  A
C976        O985   1.277       .  A
C976       C1069   1.458       .  S
O977       Ni996   1.898       .  S
O977       C2199   1.271   1_455  A
O978       Ni996   1.918       .  S
O978        C980   1.269       .  A
Ni979       O982   1.926       .  S
Ni979       O984   1.908       .  S
C980        O990   1.277       .  A
C980       C1045   1.494       .  S
O981       Ni997   1.929       .  S
O981        C987   1.269       .  A
O982        C987   1.267       .  A
C983       O2193   1.275       .  A
C983       C1025   1.451       .  S
O984        C986   1.274       .  A
O985       Ni996   1.891       .  S
C986        O992   1.286       .  A
C986       C1061   1.477       .  S
C987       C1041   1.478       .  S
H988        O989   0.966       .  S
O989      Ni2213   1.900   1_455  S
O989       Ni991   1.866       .  S
O989       Ni996   1.876       .  S
O990       Ni991   1.946       .  S
Ni991       O995   1.898       .  S
Ni991       O993   1.929       .  S
Ni991      O2191   1.949   1_455  S
O992       Ni997   1.972       .  S
C994       O2211   1.268       .  A
C994       C1029   1.457       .  S
O995       C2210   1.267       .  A
Ni997      O2205   1.897       .  S
O999      Ni1005   1.906       .  S
O999       C2236   1.276   1_455  A
O1000     Ni1023   1.896       .  S
O1000      C2225   1.263       .  A
O1001     Ni1005   1.879       .  S
O1001     Ni2233   1.919   1_455  S
O1001      H2240   0.965   1_455  S
C1002      O1019   1.276       .  A
C1002      C1038   1.490       .  S
O1003     Ni1022   1.930       .  S
O1003      C1009   1.276       .  A
O1004     Ni1022   1.916       .  S
O1004      C1006   1.276       .  A
Ni1005     O1010   1.925       .  S
C1006      C1058   1.471       .  S
O1007     Ni1023   1.946       .  S
O1007      C1013   1.284       .  A
O1008      C1013   1.278       .  A
C1009      O2216   1.260       .  A
C1009      C1030   1.468       .  S
O1011     Ni1022   1.938       .  S
C1012      O1018   1.274       .  A
C1012      C1034   1.484       .  S
C1013      C1065   1.477       .  S
H1014      O1015   0.966       .  S
O1015     Ni2239   1.946       .  S
O1015     Ni1022   1.904       .  S
O1016     Ni1017   1.946       .  S
Ni1017     O1021   1.915       .  S
Ni1017     O1019   1.941       .  S
Ni1017     O2217   1.919       .  S
O1018     Ni1023   1.939       .  S
C1020      O2215   1.273       .  A
C1020      O1021   1.272       .  A
C1020      C1026   1.467       .  S
Ni1023     O2231   1.959   1_455  S
H1024      O2217   0.965       .  S
C1025      C1026   1.339       .  D
C1025      H1027   1.088       .  S
C1026      H1028   1.086       .  S
C1029      C1030   1.338       .  D
C1029      H1031   1.089       .  S
C1030      H2248   1.087       .  S
H1032      C2246   1.087       .  S
C1033      C1034   1.353       .  D
C1033      H1035   1.087       .  S
C1037      C1038   1.357       .  D
C1037      H1039   1.086       .  S
C1041      C1042   1.344       .  D
C1041      H1043   1.088       .  S
C1042      H1044   1.086       .  S
C1045      C1046   1.358       .  D
C1045      H1047   1.086       .  S
C1046      H1048   1.087       .  S
C1049      C1050   1.338       .  D
C1049      H1051   1.086       .  S
C1050      H1052   1.089       .  S
C1053      C1054   1.341       .  D
C1053      H1055   1.088       .  S
C1054      H1056   1.087       .  S
C1057      C1058   1.338       .  D
C1057      H1059   1.087       .  S
C1058      H1060   1.087       .  S
C1061      C1062   1.341       .  D
C1061      H1063   1.088       .  S
C1062      H1064   1.087       .  S
C1065      C1066   1.343       .  D
C1065      H1067   1.088       .  S
C1066      H1068   1.086       .  S
C1069      C1070   1.338       .  D
C1069      H1071   1.088       .  S
C1070      H1072   1.087       .  S
C1073      C1074   1.338   1_554  D
C1073      H1075   1.086       .  S
C1074      H1076   1.089       .  S
C1077      C2294   1.335   1_455  D
C1077      H1079   1.087       .  S
C1078      C2293   1.340       .  D
C1078      H1080   1.089       .  S
C1081      C1082   1.359       .  D
C1081      H1083   1.087       .  S
C1082      H1084   1.086       .  S
C1085      C1086   1.354       .  D
C1086      H1088   1.088       .  S
C1089      C1090   1.356       .  D
C1089      H1091   1.087       .  S
C1090      H1092   1.086       .  S
C1093      C1094   1.359       .  D
C1094      H1096   1.087   1_556  S
C1097      C1098   1.338       .  D
C1097      H1099   1.088       .  S
C1098      H1100   1.086       .  S
C1101      C2318   1.336       .  D
C1101      H1103   1.087       .  S
C1102      C2317   1.337       .  D
C1102      H1104   1.089       .  S
C1105      C1106   1.341       .  D
C1105      H1107   1.087       .  S
C1106      H1108   1.087       .  S
C1109      C1110   1.340       .  D
C1109      H1111   1.086       .  S
C1110      H1112   1.088       .  S
C1113      C1114   1.342       .  D
C1113      H1115   1.087       .  S
C1114      H1116   1.087       .  S
C1117      C1118   1.342       .  D
C1117      H1119   1.087       .  S
C1118      H1120   1.087       .  S
C1121      C2338   1.337       .  D
C1121      H1123   1.089       .  S
C1122      C2337   1.338       .  D
C1122      H1124   1.086       .  S
C1125      C1126   1.336       .  D
C1125      H1127   1.087       .  S
C1126      H1128   1.088       .  S
C1129      C1130   1.364       .  D
C1129      H1131   1.086       .  S
C1130      H1132   1.086       .  S
C1133      C1134   1.352       .  D
C1134      H1136   1.086       .  S
C1137      C1138   1.356       .  D
C1137      H1139   1.086       .  S
C1138      H1140   1.087       .  S
C1141      C1142   1.360       .  D
C1142      H1144   1.088       .  S
C1145      C2362   1.337       .  D
C1145      H1147   1.086       .  S
C1146      C2361   1.336       .  D
C1146      H1148   1.089       .  S
C1149      C1150   1.332       .  D
C1149      H1151   1.089       .  S
C1150      H1152   1.087       .  S
C1153      C1154   1.344       .  D
C1153      H1155   1.087       .  S
C1154      H1156   1.087       .  S
C1157      C1158   1.338       .  D
C1157      H1159   1.087       .  S
C1158      H1160   1.087       .  S
C1161      C1162   1.345       .  D
C1161      H1163   1.087       .  S
C1162      H1164   1.086       .  S
C1165      C1166   1.334       .  D
C1165      H1167   1.087       .  S
C1166      H1168   1.088       .  S
C1169      C1170   1.340       .  D
C1169      H1171   1.087       .  S
C1170      H1172   1.087       .  S
C1173      C1174   1.337       .  D
C1173      H1175   1.088       .  S
C1174      H1176   1.088       .  S
C1177      C1178   1.356       .  D
C1177      H1179   1.088       .  S
C1178      H1180   1.086       .  S
C1181      C1182   1.360   1_565  D
C1181      H1183   1.086       .  S
C1182      H1184   1.086       .  S
C1185      C1186   1.337       .  D
C1185      H1187   1.087       .  S
C1189      C1190   1.342       .  D
C1190      H1192   1.088       .  S
C1193      C1194   1.348       .  D
C1193      H1195   1.088       .  S
C1194      H1196   1.086       .  S
C1197      C1198   1.359       .  D
C1197      H1199   1.087       .  S
C1198      H1200   1.086       .  S
C1201      C1202   1.334       .  D
C1201      H2419   1.089       .  S
C1202      H1204   1.087       .  S
H1203      C2417   1.089   1_455  S
C1205      C1846   1.442       .  S
C1205      C1206   1.330       .  D
C1205      H2423   1.087       .  S
C1206      H1208   1.090       .  S
H1207      C2421   1.087       .  S
C1209      C1210   1.345       .  D
C1209      H1211   1.087       .  S
C1210      H1212   1.086       .  S
C1213      C1214   1.337       .  D
C1213      H1215   1.087       .  S
C1214      H1216   1.087       .  S
O1217     Ni1223   1.901       .  S
O1218     Ni1241   1.880       .  S
O1218      C1227   1.265       .  A
O1219     Ni1223   1.906       .  S
O1219     Ni1241   1.903       .  S
O1219      H1242   0.967   1_655  S
C1220      O1237   1.285       .  A
C1220      O1229   1.277       .  A
C1220      C1821   1.461       .  S
O1221     Ni1240   1.918       .  S
O1222     Ni1240   1.928       .  S
O1222      C1224   1.269       .  A
Ni1223     O1226   1.929       .  S
Ni1223     O1228   1.915       .  S
C1224      O1234   1.275       .  A
C1224      C1805   1.493       .  S
O1225     Ni1241   1.920       .  S
O1225      C1231   1.270       .  A
O1226      C1231   1.270       .  A
C1227      C1809   1.440       .  S
O1228      C1230   1.271       .  A
O1229     Ni1240   1.910       .  S
C1230      O1236   1.276       .  A
C1230      C1818   1.474       .  S
C1231      C1801   1.473       .  S
H1232      O1233   0.966       .  S
O1233     Ni1235   1.864       .  S
O1233     Ni1240   1.878       .  S
O1234     Ni1235   1.943       .  S
Ni1235     O1239   1.897       .  S
Ni1235     O1237   1.936       .  S
O1236     Ni1241   1.954       .  S
C1238      O1239   1.264       .  A
O1243     Ni1249   1.905       .  S
O1244     Ni1875   1.876       .  S
O1245     Ni1249   1.889       .  S
O1245     Ni1267   1.858       .  S
C1246      O1263   1.280       .  A
C1246      O1255   1.281       .  A
C1246      C1789   1.497       .  S
O1247     Ni1266   1.941       .  S
O1247      C1253   1.276   1_655  A
O1248     Ni1266   1.894       .  S
O1248      C1858   1.266       .  A
Ni1249     O1252   1.924       .  S
Ni1249     O1254   1.936       .  S
C1250      O1856   1.268       .  A
C1250      O1260   1.275       .  A
C1250      C2405   1.467       .  S
O1251     Ni1875   1.952       .  S
O1251      C1865   1.291   1_545  A
O1252      C1257   1.279       .  A
C1253      C1814   1.444       .  S
O1254      C1256   1.270       .  A
O1255     Ni1874   1.953       .  S
C1256      O1262   1.269       .  A
C1256      C1785   1.485       .  S
C1257      O1859   1.276       .  A
C1257      C2402   1.473       .  S
H1258      O1259   0.966       .  S
O1259     Ni1261   1.898       .  S
O1259     Ni1874   1.900       .  S
O1260     Ni1261   1.947       .  S
Ni1261     O1265   1.899       .  S
Ni1261     O1263   1.932       .  S
O1262     Ni1267   1.922       .  S
C1264      O1265   1.272       .  A
C1264      C1810   1.456       .  S
Ni1266     O1863   1.949       .  S
Ni1266     O1867   1.901       .  S
Ni1267     O1852   1.859       .  S
Ni1267     O1859   1.929       .  S
O1269     Ni1275   1.919       .  S
O1269      C1290   1.276       .  A
O1270     Ni1293   1.898       .  S
O1270      C1279   1.273       .  A
O1271     Ni1275   1.895       .  S
O1271     Ni1293   1.898       .  S
O1271     Ni1287   1.925       .  S
O1271      H1294   0.966       .  S
C1272      O1289   1.284       .  A
C1272      O1281   1.272       .  A
C1272      C1774   1.442       .  S
O1273     Ni1292   1.888       .  S
O1273      C1279   1.273       .  A
O1274     Ni1292   1.932       .  S
O1274      C1276   1.269       .  A
Ni1275     O1278   1.936       .  S
Ni1275     O1280   1.918       .  S
C1276      O1286   1.275       .  A
C1276      C1806   1.493       .  S
O1277     Ni1293   1.922       .  S
O1277      C1283   1.274       .  A
O1278      C1283   1.275       .  A
C1279      C1777   1.452       .  S
O1280      C1282   1.272       .  A
O1281     Ni1292   1.884       .  S
C1282      O1288   1.281       .  A
C1282      C1770   1.485       .  S
C1283      C1802   1.476       .  S
H1284      O1285   0.965       .  S
O1285     Ni1293   1.897       .  S
O1285     Ni1287   1.856       .  S
O1285     Ni1292   1.867       .  S
O1286     Ni1287   1.943       .  S
Ni1287     O1291   1.880       .  S
Ni1287     O1289   1.937       .  S
O1288     Ni1293   1.968       .  S
C1290      O1291   1.263       .  A
C1290      C1781   1.456       .  S
O1295     Ni1301   1.910       .  S
O1295      C1316   1.270       .  A
O1296     Ni1319   1.890       .  S
O1296      C1305   1.271       .  A
O1297     Ni1909   1.912       .  S
O1297     Ni1319   1.900       .  S
O1297     Ni1313   1.941       .  S
O1297      H1320   0.969       .  S
C1298      O1923   1.281       .  A
C1298      O1307   1.280       .  A
C1298      C2373   1.468       .  S
O1299     Ni1318   1.898       .  S
O1299      C1305   1.272       .  A
O1300     Ni1318   1.918       .  S
O1300      C1302   1.267       .  A
Ni1301     O1912   1.927       .  S
Ni1301     O1306   1.909       .  S
Ni1301     O1905   1.910       .  S
C1302      O1312   1.276       .  A
C1302      C1790   1.495       .  S
O1303     Ni1319   1.937       .  S
O1303      C1309   1.273       .  A
O1304     Ni1909   1.929       .  S
O1304      C1309   1.269       .  A
C1305      C1778   1.444       .  S
O1306      C1916   1.273       .  A
O1307     Ni1318   1.906       .  S
C1308      O1914   1.273       .  A
C1308      O1314   1.285       .  A
C1308      C2369   1.476       .  S
C1309      C1786   1.489       .  S
H1310      O1311   0.965       .  S
O1311     Ni1319   1.903       .  S
O1311     Ni1313   1.857       .  S
O1311     Ni1318   1.879       .  S
O1312     Ni1313   1.943       .  S
Ni1313     O1925   1.878       .  S
Ni1313     O1923   1.930       .  S
O1314     Ni1319   1.975       .  S
O1315     Ni1921   1.928       .  S
O1315      C1906   1.281       .  A
C1316      O1317   1.262       .  A
C1316      C1782   1.451       .  S
O1317     Ni1921   1.877       .  S
O1321     Ni1327   1.915       .  S
O1321      C1342   1.272       .  A
O1322     Ni1345   1.898       .  S
O1322      C1331   1.267       .  A
O1323     Ni1327   1.875       .  S
O1323     Ni1345   1.860       .  S
O1323     Ni1339   1.924       .  S
O1323      H1346   0.965       .  S
C1324      O1341   1.282       .  A
C1324      O1333   1.269       .  A
C1324      C2357   1.501   1_545  S
O1325     Ni1344   1.903       .  S
O1325      C1331   1.267       .  A
O1326     Ni1344   1.915       .  S
O1326      C1328   1.276       .  A
Ni1327     O1330   1.932       .  S
Ni1327     O1332   1.903       .  S
C1328      O1338   1.272       .  A
C1328      C1766   1.452       .  S
O1329     Ni1345   1.946       .  S
O1329      C1335   1.285       .  A
O1330      C1335   1.283       .  A
C1331      C1757   1.453       .  S
O1332      C1334   1.265       .  A
O1333     Ni1344   1.928       .  S
C1334      O1340   1.278       .  A
C1334      C1746   1.489       .  S
C1335      C1769   1.487       .  S
H1336      O1337   0.967       .  S
O1337     Ni1345   1.956       .  S
O1337     Ni1339   1.905       .  S
O1337     Ni1344   1.907       .  S
O1338     Ni1339   1.933       .  S
Ni1339     O1343   1.894       .  S
Ni1339     O1341   1.957       .  S
O1340     Ni1345   1.950       .  S
C1342      O1343   1.271       .  A
C1342      C1754   1.443       .  S
O1347     Ni1353   1.930       .  S
O1347      C1368   1.277       .  A
O1348     Ni1371   1.895       .  S
O1348      C1357   1.272       .  A
O1349     Ni1353   1.896       .  S
O1349     Ni1371   1.908       .  S
O1349     Ni1365   1.928       .  S
O1349      H1372   0.966       .  S
C1350      O1367   1.280       .  A
C1350      O1359   1.274       .  A
C1350      C1773   1.457       .  S
O1351     Ni1370   1.907       .  S
O1351      C1357   1.281       .  A
O1352     Ni1370   1.952       .  S
O1352      C1354   1.273       .  A
Ni1353     O1356   1.938       .  S
Ni1353     O1358   1.913       .  S
C1354      O1364   1.272       .  A
C1354      C1737   1.498       .  S
O1355     Ni1371   1.928       .  S
O1355      C1361   1.275       .  A
O1356      C1361   1.276       .  A
C1357      C1753   1.458       .  S
O1358      C1360   1.273       .  A
O1359     Ni1370   1.907       .  S
C1360      O1366   1.279       .  A
C1360      C1762   1.480       .  S
C1361      C2349   1.482   1_545  S
H1362      O1363   0.965       .  S
O1363     Ni1371   1.902       .  S
O1363     Ni1365   1.853       .  S
O1363     Ni1370   1.880       .  S
O1364     Ni1365   1.934       .  S
Ni1365     O1369   1.879       .  S
Ni1365     O1367   1.909       .  S
O1366     Ni1371   1.956       .  S
C1368      O1369   1.258       .  A
C1368      C1758   1.462       .  S
O1373     Ni1379   1.908       .  S
O1373      C1394   1.269       .  A
O1374     Ni1397   1.899       .  S
O1374      C1383   1.272       .  A
O1375     Ni1379   1.905       .  S
O1375     Ni1397   1.908       .  S
O1375     Ni1391   1.944       .  S
O1375      H1398   0.967       .  S
C1376      O1393   1.281       .  A
C1376      O1385   1.280       .  A
C1376      C1721   1.459       .  S
O1377     Ni1396   1.917       .  S
O1377      C1383   1.275       .  A
O1378     Ni1396   1.923       .  S
O1378      C1380   1.270       .  A
Ni1379     O1382   1.932       .  S
Ni1379     O1384   1.907       .  S
C1380      O1390   1.282       .  A
C1380      C1738   1.504       .  S
O1381     Ni1397   1.930       .  S
O1381      C1387   1.272       .  A
O1382      C1387   1.272       .  A
C1383      C1729   1.448       .  S
O1384      C1386   1.271       .  A
O1385     Ni1396   1.916       .  S
C1386      O1392   1.282       .  A
C1386      C1725   1.475       .  S
C1387      C1742   1.486       .  S
H1388      O1389   0.965       .  S
O1389     Ni1397   1.899       .  S
O1389     Ni1391   1.861       .  S
O1389     Ni1396   1.864       .  S
O1390     Ni1391   1.959       .  S
Ni1391     O1395   1.899       .  S
Ni1391     O1393   1.928       .  S
O1392     Ni1397   1.969       .  S
C1394      O1395   1.269       .  A
C1394      C1734   1.456       .  S
O1399     Ni1405   1.920       .  S
O1399      C1420   1.281       .  A
O1400     Ni1423   1.886       .  S
O1400      C1409   1.261       .  A
O1401     Ni1405   1.882       .  S
O1401     Ni1423   1.865       .  S
O1401     Ni1417   1.911       .  S
O1401      H1424   0.965       .  S
C1402      O1419   1.277       .  A
C1402      O1411   1.274       .  A
C1402      C1750   1.492       .  S
O1403     Ni1422   1.933       .  S
O1403      C1409   1.278       .  A
O1404     Ni1422   1.911       .  S
O1404      C1406   1.276       .  A
Ni1405     O1408   1.915       .  S
Ni1405     O1410   1.930       .  S
C1406      O1416   1.275       .  A
C1406      C1718   1.468       .  S
O1407     Ni1423   1.943       .  S
O1407      C1413   1.282       .  A
O1408      C1413   1.280       .  A
C1409      C1733   1.467       .  S
O1410      C1412   1.270       .  A
O1411     Ni1422   1.940       .  S
C1412      O1418   1.270       .  A
C1412      C1745   1.480       .  S
C1413      C1713   1.480       .  S
H1414      O1415   0.966       .  S
O1415     Ni1423   1.947       .  S
O1415     Ni1417   1.909       .  S
O1415     Ni1422   1.905       .  S
O1416     Ni1417   1.934       .  S
Ni1417     O1421   1.895       .  S
Ni1417     O1419   1.940       .  S
O1418     Ni1423   1.926       .  S
C1420      O1421   1.268       .  A
C1420      C1730   1.460       .  S
O1425     Ni1431   1.902       .  S
O1425      C1446   1.274       .  A
O1426     Ni1449   1.887       .  S
O1426      C1435   1.259       .  A
O1427     Ni1431   1.888       .  S
O1427     Ni1449   1.860       .  S
O1427     Ni1443   1.921       .  S
O1427      H1450   0.966       .  S
C1428      O1445   1.280       .  A
C1428      O1437   1.272       .  A
C1428      C2309   1.510   1_545  S
O1429     Ni1448   1.915       .  S
O1429      C1435   1.273       .  A
O1430     Ni1448   1.910       .  S
O1430      C1432   1.273       .  A
Ni1431     O1434   1.913       .  S
Ni1431     O1436   1.934       .  S
C1432      O1442   1.277       .  A
C1432      C1798   1.465       .  S
O1433     Ni1449   1.941       .  S
O1433      C1439   1.282       .  A
O1434      C1439   1.277       .  A
C1435      C1709   1.465       .  S
O1436      C1438   1.270       .  A
O1437     Ni1448   1.929       .  S
C1438      O1444   1.273       .  A
C1438      C1697   1.495       .  S
C1439      C1817   1.481       .  S
H1440      O1441   0.966       .  S
O1441     Ni1449   1.954       .  S
O1441     Ni1443   1.917       .  S
O1441     Ni1448   1.907       .  S
O1442     Ni1443   1.944       .  S
Ni1443     O1447   1.897       .  S
Ni1443     O1445   1.951       .  S
O1444     Ni1449   1.940       .  S
C1446      O1447   1.273       .  A
C1446      C1705   1.443       .  S
O1451     Ni1457   1.906       .  S
O1451      C1472   1.268       .  A
O1452     Ni1475   1.904       .  S
O1452      C1461   1.271       .  A
O1453     Ni1457   1.881       .  S
O1453     Ni1475   1.887       .  S
O1453     Ni1469   1.929       .  S
O1453      H1476   0.966       .  S
C1454      O1471   1.285       .  A
C1454      O1463   1.279       .  A
C1454      C1822   1.464       .  S
O1455     Ni1474   1.902       .  S
O1455      C1461   1.275       .  A
O1456     Ni1474   1.928       .  S
O1456      C1458   1.268       .  A
Ni1457     O1460   1.922       .  S
Ni1457     O1462   1.904       .  S
C1458      O1468   1.274       .  A
C1458      C1689   1.490       .  S
O1459     Ni1475   1.942       .  S
O1459      C1465   1.286       .  A
O1460      C1465   1.281       .  A
C1461      C1706   1.455       .  S
O1462      C1464   1.264       .  A
O1463     Ni1474   1.913       .  S
C1464      O1470   1.269       .  A
C1464      C1793   1.466       .  S
C1465      C2301   1.480   1_545  S
H1466      O1467   0.966       .  S
O1467     Ni1475   1.925       .  S
O1467     Ni1469   1.859       .  S
O1467     Ni1474   1.860       .  S
O1468     Ni1469   1.939       .  S
Ni1469     O1473   1.901       .  S
Ni1469     O1471   1.932       .  S
O1470     Ni1475   1.928       .  S
C1472      O1473   1.259       .  A
C1472      C1710   1.459       .  S
O1477     Ni1483   1.926       .  S
O1477      C1498   1.276       .  A
O1478     Ni1501   1.899       .  S
O1478      C1487   1.271       .  A
O1479     Ni1483   1.901       .  S
O1479     Ni1501   1.917       .  S
O1479     Ni1495   1.932       .  S
O1479      H1502   0.966       .  S
C1480      O1497   1.278       .  A
C1480      O1489   1.278       .  A
C1480      C1678   1.443       .  S
O1481     Ni1500   1.920   1_556  S
O1481      C1487   1.276       .  A
O1482     Ni1500   1.929   1_556  S
O1482      C1484   1.269       .  A
Ni1483     O1486   1.930       .  S
Ni1483     O1488   1.906   1_556  S
C1484      O1494   1.273       .  A
C1484      C1690   1.488       .  S
O1485     Ni1501   1.920       .  S
O1485      C1491   1.271       .  A
O1486      C1491   1.274       .  A
C1487      C1682   1.450       .  S
O1488      C1490   1.271       .  A
O1489     Ni1500   1.907       .  S
C1490      O1496   1.279       .  A
C1490      C1674   1.475       .  S
C1491      C1694   1.477       .  S
H1492      O1493   0.966       .  S
O1493     Ni1501   1.892   1_554  S
O1493     Ni1495   1.861   1_554  S
O1493     Ni1500   1.873       .  S
O1494     Ni1495   1.937       .  S
Ni1495     O1499   1.891       .  S
Ni1495     O1497   1.918   1_556  S
O1496     Ni1501   1.954   1_554  S
C1498      O1499   1.262       .  A
C1498      C1685   1.466       .  S
O1503     Ni1509   1.918       .  S
O1503      C1524   1.283       .  A
O1504     Ni1527   1.901       .  S
O1504      C1513   1.266       .  A
O1505     Ni1509   1.876       .  S
O1505     Ni1527   1.860   1_554  S
O1505     Ni1521   1.912   1_554  S
O1505      H1528   0.965       .  S
C1506      O1523   1.277       .  A
C1506      O1515   1.267       .  A
C1506      C1702   1.502       .  S
O1507     Ni1526   1.906       .  S
O1507      C1513   1.267       .  A
O1508     Ni1526   1.910   1_554  S
O1508      C1510   1.278       .  A
Ni1509     O1512   1.924       .  S
Ni1509     O1514   1.927   1_554  S
C1510      O1520   1.287       .  A
C1510      C1665   1.468       .  S
O1511     Ni1527   1.947   1_554  S
O1511      C1517   1.286       .  A
O1512      C1517   1.280       .  A
C1513      C1686   1.459       .  S
O1514      C1516   1.271       .  A
O1515     Ni1526   1.924       .  S
C1516      O1522   1.274       .  A
C1516      C1698   1.494       .  S
C1517      C1670   1.484       .  S
H1518      O1519   0.966       .  S
O1519     Ni1527   1.966       .  S
O1519     Ni1521   1.911       .  S
O1519     Ni1526   1.898       .  S
O1520     Ni1521   1.959   1_554  S
Ni1521     O1525   1.901   1_556  S
Ni1521     O1523   1.967       .  S
O1522     Ni1527   1.941       .  S
C1524      O1525   1.274       .  A
C1524      C1681   1.462       .  S
O1529     Ni1535   1.913       .  S
O1529      C1550   1.268       .  A
O1530     Ni1553   1.910       .  S
O1530      C1539   1.274       .  A
O1531     Ni1535   1.908       .  S
O1531     Ni1553   1.919       .  S
O1531     Ni1547   1.942       .  S
O1531      H1554   0.966       .  S
C1532      O1549   1.283       .  A
C1532      O1541   1.277       .  A
C1532      C1722   1.467       .  S
O1533     Ni1552   1.907       .  S
O1533      C1539   1.278       .  A
O1534     Ni1552   1.932       .  S
O1534      C1536   1.270       .  A
Ni1535     O1538   1.912       .  S
Ni1535     O1540   1.902       .  S
C1536      O1546   1.274       .  A
C1536      C1654   1.488       .  S
O1537     Ni1553   1.929       .  S
O1537      C1543   1.274       .  A
O1538      C1543   1.267       .  A
C1539      C1657   1.471       .  S
O1540      C1542   1.272       .  A
O1541     Ni1552   1.899       .  S
C1542      O1548   1.281       .  A
C1542      C1714   1.469       .  S
C1543      C1650   1.477       .  S
H1544      O1545   0.966       .  S
O1545     Ni1553   1.902       .  S
O1545     Ni1547   1.864       .  S
O1545     Ni1552   1.876       .  S
O1546     Ni1547   1.936       .  S
Ni1547     O1551   1.894       .  S
Ni1547     O1549   1.940       .  S
O1548     Ni1553   1.949       .  S
C1550      O1551   1.265       .  A
C1550      C1661   1.455       .  S
O1555     Ni1561   1.919       .  S
O1555      C1576   1.276       .  A
O1556     Ni1579   1.896       .  S
O1556      C1565   1.262       .  A
O1557     Ni1561   1.875   1_565  S
O1557     Ni2187   1.860       .  S
O1557     Ni1573   1.909       .  S
O1557      H1580   0.965       .  S
C1558      O1575   1.277       .  A
C1558      O2175   1.270       .  A
C1558      C1645   1.501       .  S
O1559     Ni1578   1.915       .  S
O1559      C1565   1.273       .  A
O1560     Ni1578   1.901       .  S
O1560      C1562   1.276       .  A
Ni1561     O1564   1.927   1_545  S
Ni1561     O1566   1.916       .  S
C1562      O2180   1.285       .  A
C1562      C1717   1.460       .  S
O1563     Ni1579   1.931       .  S
O1563      C1569   1.284       .  A
O1564      C2177   1.281       .  A
C1565      C1662   1.465       .  S
O1566      C1568   1.267   1_545  A
O1567     Ni1578   1.934       .  S
O1567      C2166   1.269       .  A
C1568      O2182   1.273       .  A
C1568      C2249   1.486       .  S
C1569      O2172   1.282       .  A
C1569      C1726   1.480       .  S
H1570      O1571   0.966       .  S
O1571     Ni1579   1.958       .  S
O1571     Ni2181   1.906       .  S
O1571     Ni1578   1.903       .  S
O1572     Ni1573   1.955       .  S
O1572      C2170   1.284       .  A
Ni1573     O1577   1.910   1_565  S
Ni1573     O1575   1.948       .  S
Ni1573     O2179   1.907       .  S
O1574     Ni1579   1.935       .  S
O1574      C2176   1.272       .  A
C1576      O1577   1.276       .  A
C1576      C1658   1.456       .  S
Ni1579     O2165   1.859       .  S
O1581     Ni1587   1.913       .  S
O1581      C1602   1.270   1_655  A
O1582     Ni1605   1.903       .  S
O1582      C1591   1.270       .  A
O1583     Ni1587   1.909       .  S
O1583     Ni1605   1.913       .  S
O1583      H1606   0.967       .  S
C1584      O1601   1.280       .  A
C1584      O1593   1.278       .  A
C1584      C1677   1.458       .  S
O1585     Ni1604   1.899       .  S
O1586     Ni1604   1.915       .  S
O1586      C1588   1.269       .  A
Ni1587     O1590   1.939       .  S
Ni1587     O1592   1.906       .  S
C1588      O1598   1.277       .  A
C1588      C1653   1.491       .  S
O1589     Ni1605   1.921       .  S
O1589      C1595   1.268       .  A
O1590      C1595   1.271       .  A
C1591      C1633   1.449       .  S
O1592      C1594   1.271       .  A
O1593     Ni1604   1.896       .  S
C1594      O1600   1.285       .  A
C1594      C1669   1.481       .  S
C1595      C1649   1.481       .  S
H1596      O1597   0.965       .  S
O1597     Ni1599   1.867       .  S
O1597     Ni1604   1.873       .  S
O1598     Ni1599   1.945       .  S
Ni1599     O1603   1.900       .  S
Ni1599     O1601   1.926       .  S
O1600     Ni1605   1.976       .  S
C1602      C1637   1.457       .  S
O1607     Ni1613   1.908       .  S
O1608     Ni1631   1.898       .  S
O1609     Ni1613   1.884   1_565  S
O1609     Ni2239   1.870       .  S
C1610      O1627   1.276       .  A
C1610      O2227   1.271       .  A
C1610      C1646   1.491       .  S
O1611     Ni1630   1.920       .  S
O1611      C1617   1.275   1_655  A
O1612     Ni1630   1.912       .  S
O1612      C1614   1.275       .  A
Ni1613     O2224   1.918   1_545  S
Ni1613     O1618   1.922       .  S
C1614      O2232   1.277       .  A
C1614      C1666   1.468       .  S
O1615     Ni1631   1.945       .  S
O1615      C1621   1.284       .  A
O1616     Ni2221   1.918       .  S
O1616      C1621   1.278       .  A
C1617      C1638   1.468       .  S
O1618      C2228   1.267   1_545  A
O1619     Ni1630   1.938       .  S
O1619      C2218   1.272       .  A
C1620      O2226   1.266       .  A
C1620      O1626   1.274       .  A
C1620      C1642   1.483       .  S
C1621      C1673   1.481       .  S
H1622      O1623   0.966       .  S
O1623     Ni2233   1.913       .  S
O1623     Ni1630   1.903       .  S
O1624     Ni1625   1.947       .  S
O1624      C2222   1.278       .  A
Ni1625     O1629   1.912   1_565  S
Ni1625     O1627   1.940       .  S
Ni1625     O2231   1.918       .  S
O1626     Ni1631   1.939       .  S
C1628      O1629   1.271       .  A
C1628      C1634   1.466       .  S
Ni1631     O2217   1.872       .  S
C1633      C1634   1.339       .  D
C1633      H1635   1.088   1_655  S
C1634      H1636   1.086       .  S
C1637      C1638   1.340       .  D
C1637      H1639   1.088       .  S
C1641      C2176   1.490       .  S
C1641      C1642   1.351       .  D
C1641      H1643   1.087       .  S
C1642      H2252   1.086       .  S
H1644      C2250   1.086       .  S
C1645      C1646   1.358       .  D
C1645      H1647   1.086   1_565  S
C1646      H2256   1.087       .  S
H1648      C2254   1.087       .  S
C1649      C1650   1.348       .  D
C1649      H1651   1.086       .  S
C1650      H1652   1.088       .  S
C1653      C1654   1.358       .  D
C1653      H1655   1.086       .  S
C1654      H1656   1.087       .  S
C1657      C1658   1.342       .  D
C1657      H1659   1.086       .  S
C1658      H1660   1.089       .  S
C1661      C1662   1.338       .  D
C1661      H1663   1.088       .  S
C1662      H1664   1.087       .  S
C1665      C1666   1.339       .  D
C1665      H1667   1.087       .  S
C1666      H1668   1.087       .  S
C1669      C1670   1.344       .  D
C1669      H1671   1.087       .  S
C1670      H1672   1.087       .  S
C1673      C1674   1.343       .  D
C1673      H1675   1.088       .  S
C1674      H1676   1.086       .  S
C1677      C1678   1.336       .  D
C1677      H1679   1.088       .  S
C1678      H1680   1.087       .  S
C1681      C1682   1.337   1_554  D
C1681      H1683   1.086       .  S
C1682      H1684   1.089       .  S
C1685      H1687   1.087       .  S
C1686      H1688   1.089   1_655  S
C1689      C1690   1.358       .  D
C1689      H1691   1.087       .  S
C1690      H1692   1.086       .  S
C1693      C2073   1.484       .  S
C1693      C1694   1.353       .  D
C1693      H2303   1.086       .  S
C1694      H1696   1.089       .  S
H1695      C2301   1.088       .  S
C1697      C1698   1.356       .  D
C1697      H1699   1.087       .  S
C1698      H1700   1.086       .  S
C1701      C2036   1.514       .  S
C1701      C1702   1.360       .  D
C1701      H2311   1.085       .  S
C1702      H1704   1.088       .  S
H1703      C2309   1.085       .  S
C1705      C1706   1.335       .  D
C1705      H1707   1.089       .  S
C1706      H1708   1.086       .  S
C1709      H1711   1.087   1_655  S
C1710      H1712   1.086       .  S
C1713      C1714   1.343       .  D
C1713      H1715   1.087       .  S
C1714      H1716   1.087       .  S
C1717      C1718   1.337       .  D
C1717      H1719   1.086       .  S
C1718      H1720   1.088       .  S
C1721      C1722   1.343       .  D
C1721      H1723   1.087       .  S
C1722      H1724   1.087       .  S
C1725      C1726   1.344       .  D
C1725      H1727   1.087       .  S
C1726      H1728   1.087       .  S
C1729      H1731   1.089       .  S
C1730      H1732   1.086       .  S
C1733      C1734   1.336       .  D
C1733      H1735   1.087       .  S
C1734      H1736   1.088       .  S
C1737      C1738   1.363       .  D
C1737      H1739   1.086       .  S
C1738      H1740   1.086       .  S
C1741      C1969   1.477       .  S
C1741      C1742   1.350       .  D
C1741      H2351   1.088       .  S
C1742      H1744   1.086       .  S
H1743      C2349   1.088       .  S
C1745      C1746   1.356       .  D
C1745      H1747   1.086       .  S
C1746      H1748   1.087       .  S
C1749      C1932   1.500       .  S
C1749      C1750   1.360       .  D
C1749      H2359   1.085       .  S
C1750      H1752   1.088       .  S
H1751      C2357   1.085       .  S
C1753      H1755   1.086       .  S
C1754      H1756   1.089       .  S
C1757      C1758   1.331       .  D
C1757      H1759   1.089       .  S
C1758      H1760   1.087       .  S
C1761      C1916   1.475       .  S
C1761      C1762   1.344       .  D
C1761      H1763   1.087       .  S
C1762      H1764   1.087       .  S
C1765      C1906   1.464       .  S
C1765      C1766   1.336       .  D
C1765      H1767   1.087       .  S
C1766      H1768   1.087       .  S
C1769      C1770   1.348       .  D
C1769      H1771   1.087       .  S
C1770      H1772   1.086       .  S
C1773      C1774   1.333       .  D
C1773      H1775   1.087       .  S
C1774      H1776   1.088       .  S
C1777      C1778   1.342       .  D
C1777      H1779   1.087       .  S
C1778      H1780   1.087       .  S
C1781      C1782   1.336       .  D
C1781      H1783   1.088       .  S
C1782      H1784   1.088       .  S
C1785      C1786   1.353       .  D
C1785      H1787   1.088       .  S
C1786      H1788   1.086       .  S
C1789      C1790   1.358       .  D
C1789      H1791   1.086       .  S
C1790      H1792   1.087       .  S
C1793      C1794   1.370   1_545  D
C1793      H1795   1.090       .  S
C1794      C1865   1.524       .  S
C1794      H2404   1.150       .  S
H1796      C2402   1.087       .  S
C1797      C1858   1.468       .  S
C1797      C1798   1.343       .  D
C1797      H2407   1.086       .  S
C1798      H1800   1.088       .  S
H1799      C2405   1.087       .  S
C1801      C1802   1.347       .  D
C1801      H1803   1.087       .  S
C1802      H1804   1.087       .  S
C1805      C1806   1.358       .  D
C1805      H1807   1.087       .  S
C1806      H1808   1.086       .  S
C1809      C1810   1.340       .  D
C1810      H1812   1.086       .  S
C1813      C1814   1.330       .  D
C1814      H1816   1.090       .  S
C1817      C1818   1.345       .  D
C1817      H1819   1.087       .  S
C1818      H1820   1.086       .  S
C1821      C1822   1.336       .  D
C1821      H1823   1.087       .  S
C1822      H1824   1.087       .  S
O1825     Ni1831   1.899       .  S
O1826     Ni1849   1.881       .  S
O1826      C1835   1.265       .  A
O1827     Ni1831   1.907       .  S
O1827     Ni1849   1.902       .  S
O1827      H1850   0.967   1_655  S
C1828      O1845   1.283       .  A
C1828      O1837   1.279       .  A
C1828      C2429   1.459       .  S
O1829     Ni1848   1.924       .  S
O1830     Ni1848   1.915       .  S
O1830      C1832   1.266       .  A
Ni1831     O1834   1.927       .  S
Ni1831     O1836   1.915       .  S
C1832      O1842   1.276       .  A
C1832      C2413   1.490       .  S
O1833     Ni1849   1.924       .  S
O1833      C1839   1.271       .  A
O1834      C1839   1.269       .  A
C1835      C2417   1.440       .  S
O1836      C1838   1.272       .  A
O1837     Ni1848   1.914       .  S
C1838      O1844   1.277       .  A
C1838      C2426   1.474       .  S
C1839      C2409   1.474       .  S
H1840      O1841   0.966       .  S
O1841     Ni1843   1.859       .  S
O1841     Ni1848   1.885       .  S
O1842     Ni1843   1.946       .  S
Ni1843     O1847   1.889       .  S
Ni1843     O1845   1.927       .  S
O1844     Ni1849   1.956       .  S
C1846      O1847   1.263       .  A
O1851     Ni1857   1.897       .  S
O1853     Ni1857   1.871       .  S
O1853     Ni1875   1.859   1_565  S
C1854      O1871   1.280       .  A
C1854      O1863   1.280   1_565  A
C1854      C2397   1.494       .  S
O1855     Ni1874   1.947       .  S
O1855      C1861   1.278   1_655  A
O1856     Ni1874   1.895       .  S
Ni1857     O1860   1.911       .  S
Ni1857     O1862   1.913       .  S
C1858      O1868   1.275   1_545  A
O1860      C1865   1.286       .  A
C1861      C2422   1.445       .  S
O1862      C1864   1.266       .  A
C1864      O1870   1.270       .  A
C1864      C2393   1.475       .  S
H1866      O1867   0.966       .  S
O1867     Ni1869   1.899   1_545  S
O1868     Ni1869   1.949       .  S
Ni1869     O1873   1.899       .  S
Ni1869     O1871   1.931       .  S
O1870     Ni1875   1.925   1_565  S
C1872      O1873   1.271       .  A
C1872      C2418   1.456       .  S
O1877     Ni1883   1.917       .  S
O1877      C1898   1.275       .  A
O1878     Ni1901   1.896       .  S
O1878      C1887   1.272       .  A
O1879     Ni1883   1.897       .  S
O1879     Ni1901   1.899       .  S
O1879     Ni1895   1.928       .  S
O1879      H1902   0.966       .  S
C1880      O1897   1.285       .  A
C1880      O1889   1.273       .  A
C1880      C2382   1.442       .  S
O1881     Ni1900   1.889       .  S
O1881      C1887   1.272       .  A
O1882     Ni1900   1.927       .  S
O1882      C1884   1.268       .  A
Ni1883     O1886   1.937       .  S
Ni1883     O1888   1.917       .  S
C1884      O1894   1.275       .  A
C1884      C2414   1.490       .  S
O1885     Ni1901   1.922       .  S
O1885      C1891   1.274       .  A
O1886      C1891   1.275       .  A
C1887      C2385   1.448       .  S
O1888      C1890   1.272       .  A
O1889     Ni1900   1.885       .  S
C1890      O1896   1.280       .  A
C1890      C2378   1.482       .  S
C1891      C2410   1.477       .  S
H1892      O1893   0.965       .  S
O1893     Ni1901   1.897       .  S
O1893     Ni1895   1.856       .  S
O1893     Ni1900   1.867       .  S
O1894     Ni1895   1.942       .  S
Ni1895     O1899   1.880       .  S
Ni1895     O1897   1.937       .  S
O1896     Ni1901   1.964       .  S
C1898      O1899   1.263       .  A
C1898      C2389   1.456       .  S
O1903     Ni1909   1.909       .  S
O1903      C1924   1.270       .  A
O1904     Ni1927   1.889       .  S
O1904      C1913   1.270       .  A
O1905     Ni1927   1.901   1_545  S
O1905     Ni1921   1.937       .  S
O1905      H1928   0.966       .  S
C1906      O1915   1.279       .  A
O1907     Ni1926   1.896       .  S
O1907      C1913   1.272       .  A
O1908     Ni1926   1.917       .  S
O1908      C1910   1.267       .  A
Ni1909     O1914   1.907       .  S
C1910      O1920   1.274   1_565  A
C1910      C2398   1.493       .  S
O1911     Ni1927   1.923       .  S
O1911      C1917   1.270       .  A
O1912      C1917   1.269   1_545  A
C1913      C2386   1.443       .  S
O1915     Ni1926   1.898   1_545  S
C1916      O1922   1.284   1_545  A
C1917      C2394   1.479       .  S
H1918      O1919   0.965   1_545  S
O1919     Ni1927   1.894       .  S
O1919     Ni1921   1.857   1_565  S
O1919     Ni1926   1.877       .  S
O1920     Ni1921   1.939       .  S
O1922     Ni1927   1.970       .  S
C1924      O1925   1.262       .  A
C1924      C2390   1.449       .  S
O1929     Ni1935   1.914       .  S
O1929      C1950   1.272       .  A
O1930     Ni1953   1.895       .  S
O1930      C1939   1.266       .  A
O1931     Ni1935   1.876       .  S
O1931     Ni1953   1.860       .  S
O1931     Ni1947   1.921       .  S
O1931      H1954   0.965       .  S
C1932      O1949   1.281       .  A
C1932      O1941   1.269       .  A
O1933     Ni1952   1.905       .  S
O1933      C1939   1.267       .  A
O1934     Ni1952   1.914       .  S
O1934      C1936   1.276       .  A
Ni1935     O1938   1.929       .  S
Ni1935     O1940   1.906       .  S
C1936      O1946   1.275       .  A
C1936      C2374   1.458       .  S
O1937     Ni1953   1.944       .  S
O1937      C1943   1.285       .  A
O1938      C1943   1.282       .  A
C1939      C2365   1.452       .  S
O1940      C1942   1.266       .  A
O1941     Ni1952   1.928       .  S
C1942      O1948   1.278       .  A
C1942      C2354   1.489       .  S
C1943      C2377   1.484       .  S
H1944      O1945   0.967       .  S
O1945     Ni1953   1.954       .  S
O1945     Ni1947   1.906       .  S
O1945     Ni1952   1.906       .  S
O1946     Ni1947   1.941       .  S
Ni1947     O1951   1.898       .  S
Ni1947     O1949   1.954       .  S
O1948     Ni1953   1.950       .  S
C1950      O1951   1.272       .  A
C1950      C2362   1.445       .  S
O1955     Ni1961   1.928       .  S
O1955      C1976   1.277       .  A
O1956     Ni1979   1.895       .  S
O1956      C1965   1.271       .  A
O1957     Ni1961   1.896       .  S
O1957     Ni1979   1.906       .  S
O1957     Ni1973   1.924       .  S
O1957      H1980   0.966       .  S
C1958      O1975   1.279       .  A
C1958      O1967   1.275       .  A
C1958      C2381   1.457       .  S
O1959     Ni1978   1.911       .  S
O1959      C1965   1.282       .  A
O1960     Ni1978   1.952       .  S
O1960      C1962   1.273       .  A
Ni1961     O1964   1.933       .  S
Ni1961     O1966   1.915       .  S
C1962      O1972   1.272       .  A
C1962      C2345   1.498       .  S
O1963     Ni1979   1.926       .  S
O1963      C1969   1.276       .  A
O1964      C1969   1.275       .  A
C1965      C2361   1.458       .  S
O1966      C1968   1.274       .  A
O1967     Ni1978   1.910       .  S
C1968      O1974   1.279       .  A
C1968      C2370   1.483       .  S
H1970      O1971   0.965       .  S
O1971     Ni1979   1.902       .  S
O1971     Ni1973   1.855       .  S
O1971     Ni1978   1.881       .  S
O1972     Ni1973   1.934       .  S
Ni1973     O1977   1.879       .  S
Ni1973     O1975   1.907       .  S
O1974     Ni1979   1.955       .  S
C1976      O1977   1.258       .  A
C1976      C2366   1.460       .  S
O1981     Ni1987   1.906       .  S
O1981      C2002   1.268       .  A
O1982     Ni2005   1.918       .  S
O1982      C1991   1.278       .  A
O1983     Ni1987   1.905       .  S
O1983     Ni2005   1.915       .  S
O1983     Ni1999   1.948       .  S
O1983      H2006   0.967       .  S
C1984      O2001   1.282       .  A
C1984      O1993   1.280       .  A
C1984      C2329   1.459       .  S
O1985     Ni2004   1.906       .  S
O1985      C1991   1.272       .  A
O1986     Ni2004   1.920       .  S
O1986      C1988   1.269       .  A
Ni1987     O1990   1.925       .  S
Ni1987     O1992   1.907       .  S
C1988      O1998   1.283       .  A
C1988      C2346   1.505       .  S
O1989     Ni2005   1.941       .  S
O1989      C1995   1.276       .  A
O1990      C1995   1.270       .  A
C1991      C2337   1.455       .  S
O1992      C1994   1.272       .  A
O1993     Ni2004   1.912       .  S
C1994      O2000   1.284       .  A
C1994      C2333   1.475       .  S
C1995      C2350   1.491       .  S
H1996      O1997   0.965       .  S
O1997     Ni2005   1.905       .  S
O1997     Ni1999   1.860       .  S
O1997     Ni2004   1.860       .  S
O1998     Ni1999   1.962       .  S
Ni1999     O2003   1.902       .  S
Ni1999     O2001   1.931       .  S
O2000     Ni2005   1.972       .  S
C2002      O2003   1.269       .  A
C2002      C2342   1.457       .  S
O2007     Ni2013   1.920       .  S
O2007      C2028   1.281       .  A
O2008     Ni2031   1.887       .  S
O2008      C2017   1.261       .  A
O2009     Ni2013   1.880       .  S
O2009     Ni2031   1.865       .  S
O2009     Ni2025   1.912       .  S
O2009      H2032   0.965       .  S
C2010      O2027   1.277       .  A
C2010      O2019   1.274       .  A
C2010      C2358   1.494       .  S
O2011     Ni2030   1.934       .  S
O2011      C2017   1.278       .  A
O2012     Ni2030   1.909       .  S
O2012      C2014   1.276       .  A
Ni2013     O2016   1.916       .  S
Ni2013     O2018   1.931       .  S
C2014      O2024   1.277       .  A
C2014      C2326   1.467       .  S
O2015     Ni2031   1.945       .  S
O2015      C2021   1.283       .  A
O2016      C2021   1.280       .  A
C2017      C2341   1.469       .  S
O2018      C2020   1.270       .  A
O2019     Ni2030   1.941       .  S
C2020      O2026   1.271       .  A
C2020      C2353   1.482       .  S
C2021      C2321   1.483       .  S
H2022      O2023   0.966       .  S
O2023     Ni2031   1.949       .  S
O2023     Ni2025   1.911       .  S
O2023     Ni2030   1.906       .  S
O2024     Ni2025   1.936       .  S
Ni2025     O2029   1.900       .  S
Ni2025     O2027   1.941       .  S
O2026     Ni2031   1.928       .  S
C2028      O2029   1.270       .  A
C2028      C2338   1.467       .  S
O2033     Ni2039   1.901       .  S
O2033      C2054   1.273       .  A
O2034     Ni2057   1.890       .  S
O2034      C2043   1.260       .  A
O2035     Ni2039   1.883       .  S
O2035     Ni2057   1.860       .  S
O2035     Ni2051   1.924       .  S
O2035      H2058   0.965       .  S
C2036      O2053   1.282       .  A
C2036      O2045   1.272       .  A
O2037     Ni2056   1.916       .  S
O2037      C2043   1.272       .  A
O2038     Ni2056   1.906       .  S
O2038      C2040   1.273       .  A
Ni2039     O2042   1.918       .  S
Ni2039     O2044   1.930       .  S
C2040      O2050   1.279       .  A
C2040      C2406   1.462       .  S
O2041     Ni2057   1.940       .  S
O2041      C2047   1.282       .  A
O2042      C2047   1.279       .  A
C2043      C2317   1.468   1_655  S
O2044      C2046   1.269       .  A
O2045     Ni2056   1.924       .  S
C2046      O2052   1.273       .  A
C2046      C2305   1.492       .  S
C2047      C2425   1.482       .  S
H2048      O2049   0.966       .  S
O2049     Ni2057   1.955       .  S
O2049     Ni2051   1.924       .  S
O2049     Ni2056   1.905       .  S
O2050     Ni2051   1.948       .  S
Ni2051     O2055   1.917       .  S
Ni2051     O2053   1.956       .  S
O2052     Ni2057   1.939       .  S
C2054      O2055   1.278       .  A
C2054      C2313   1.455       .  S
O2059     Ni2065   1.909       .  S
O2059      C2080   1.268       .  A
O2060     Ni2083   1.905       .  S
O2060      C2069   1.272       .  A
O2061     Ni2065   1.908       .  S
O2061     Ni2083   1.914       .  S
O2061     Ni2077   1.944       .  S
O2061      H2084   0.966       .  S
C2062      O2079   1.279       .  A
C2062      O2071   1.278       .  A
C2062      C2430   1.460       .  S
O2063     Ni2082   1.915       .  S
O2063      C2069   1.280       .  A
O2064     Ni2082   1.926       .  S
O2064      C2066   1.269       .  A
Ni2065     O2068   1.919       .  S
Ni2065     O2070   1.917       .  S
C2066      O2076   1.279       .  A
C2066      C2297   1.499       .  S
O2067     Ni2083   1.934       .  S
O2067      C2073   1.274       .  A
O2068      C2073   1.269       .  A
C2069      C2314   1.472       .  S
O2070      C2072   1.277       .  A
O2071     Ni2082   1.911       .  S
C2072      O2078   1.281       .  A
C2072      C2401   1.473       .  S
H2074      O2075   0.965       .  S
O2075     Ni2083   1.906       .  S
O2075     Ni2077   1.867       .  S
O2075     Ni2082   1.879       .  S
O2076     Ni2077   1.953       .  S
Ni2077     O2081   1.900       .  S
Ni2077     O2079   1.925       .  S
O2078     Ni2083   1.960       .  S
C2080      O2081   1.267       .  A
C2080      C2318   1.461       .  S
O2085     Ni2091   1.914       .  S
O2085      C2106   1.274       .  A
O2086     Ni2109   1.910       .  S
O2086      C2095   1.275       .  A
O2087     Ni2091   1.902       .  S
O2087     Ni2109   1.913       .  S
O2087     Ni2103   1.946       .  S
O2087      H2110   0.967       .  S
C2088      O2105   1.280       .  A
C2088      O2097   1.279       .  A
C2088      C2286   1.443       .  S
O2089     Ni2108   1.918   1_556  S
O2089      C2095   1.277       .  A
O2090     Ni2108   1.928   1_556  S
O2090      C2092   1.270       .  A
Ni2091     O2094   1.937       .  S
Ni2091     O2096   1.904   1_556  S
C2092      O2102   1.278       .  A
C2092      C2298   1.498       .  S
O2093     Ni2109   1.927       .  S
O2093      C2099   1.272       .  A
O2094      C2099   1.273       .  A
C2095      C2290   1.457       .  S
O2096      C2098   1.271       .  A
O2097     Ni2108   1.907       .  S
C2098      O2104   1.285       .  A
C2098      C2282   1.474       .  S
C2099      C2302   1.490       .  S
H2100      O2101   0.965   1_554  S
O2101     Ni2109   1.893       .  S
O2101     Ni2103   1.860       .  S
O2101     Ni2108   1.866   1_556  S
O2102     Ni2103   1.948       .  S
Ni2103     O2107   1.902       .  S
Ni2103     O2105   1.920   1_556  S
O2104     Ni2109   1.974   1_554  S
C2106      O2107   1.266       .  A
C2106      C2293   1.470       .  S
O2111     Ni2117   1.918       .  S
O2111      C2132   1.282       .  A
O2112     Ni2135   1.906       .  S
O2112      C2121   1.267       .  A
O2113     Ni2117   1.874       .  S
O2113     Ni2135   1.863   1_554  S
O2113     Ni2129   1.914   1_554  S
O2113      H2136   0.965       .  S
C2114      O2131   1.278       .  A
C2114      O2123   1.267       .  A
C2114      C2310   1.501       .  S
O2115     Ni2134   1.905       .  S
O2115      C2121   1.267       .  A
O2116     Ni2134   1.909   1_554  S
O2116      C2118   1.278       .  A
Ni2117     O2120   1.923       .  S
Ni2117     O2122   1.925   1_554  S
C2118      O2128   1.290       .  A
C2118      C2273   1.469       .  S
O2119     Ni2135   1.950   1_554  S
O2119      C2125   1.288       .  A
O2120      C2125   1.280       .  A
C2121      C2294   1.460       .  S
O2122      C2124   1.270       .  A
O2123     Ni2134   1.924       .  S
C2124      O2130   1.273       .  A
C2124      C2306   1.490       .  S
C2125      C2278   1.486       .  S
H2126      O2127   0.966       .  S
O2127     Ni2135   1.966       .  S
O2127     Ni2129   1.909       .  S
O2127     Ni2134   1.896       .  S
O2128     Ni2129   1.965   1_554  S
Ni2129     O2133   1.908   1_556  S
Ni2129     O2131   1.967       .  S
O2130     Ni2135   1.939       .  S
C2132      O2133   1.277       .  A
C2132      C2289   1.469       .  S
O2137     Ni2143   1.911       .  S
O2137      C2158   1.268       .  A
O2138     Ni2161   1.911       .  S
O2138      C2147   1.274       .  A
O2139     Ni2143   1.908       .  S
O2139     Ni2161   1.920       .  S
O2139     Ni2155   1.942       .  S
O2139      H2162   0.966       .  S
C2140      O2157   1.283       .  A
C2140      O2149   1.277       .  A
C2140      C2330   1.465       .  S
O2141     Ni2160   1.906       .  S
O2141      C2147   1.278       .  A
O2142     Ni2160   1.933       .  S
O2142      C2144   1.271       .  A
Ni2143     O2146   1.911       .  S
Ni2143     O2148   1.903       .  S
C2144      O2154   1.276       .  A
C2144      C2262   1.492       .  S
O2145     Ni2161   1.930       .  S
O2145      C2151   1.274       .  A
O2146      C2151   1.267       .  A
C2147      C2265   1.472       .  S
O2148      C2150   1.272       .  A
O2149     Ni2160   1.899       .  S
C2150      O2156   1.281       .  A
C2150      C2322   1.471       .  S
C2151      C2258   1.477       .  S
H2152      O2153   0.966       .  S
O2153     Ni2161   1.901       .  S
O2153     Ni2155   1.865       .  S
O2153     Ni2160   1.875       .  S
O2154     Ni2155   1.941       .  S
Ni2155     O2159   1.897       .  S
Ni2155     O2157   1.939       .  S
O2156     Ni2161   1.951       .  S
C2158      O2159   1.266       .  A
C2158      C2269   1.456       .  S
O2163     Ni2169   1.920       .  S
O2163      C2184   1.277       .  A
O2164     Ni2187   1.895       .  S
O2164      C2173   1.262       .  A
O2165     Ni2169   1.874       .  S
O2165     Ni2181   1.908       .  S
O2165      H2188   0.965       .  S
C2166      O2183   1.277       .  A
C2166      C2253   1.502       .  S
O2167     Ni2186   1.919       .  S
O2167      C2173   1.274       .  A
O2168     Ni2186   1.900       .  S
O2168      C2170   1.275       .  A
Ni2169     O2172   1.930       .  S
Ni2169     O2174   1.918       .  S
C2170      C2325   1.459       .  S
O2171     Ni2187   1.936       .  S
O2171      C2177   1.284       .  A
C2173      C2270   1.466       .  S
O2174      C2176   1.269       .  A
O2175     Ni2186   1.937       .  S
C2177      C2334   1.481       .  S
H2178      O2179   0.966       .  S
O2179     Ni2187   1.956       .  S
O2179     Ni2186   1.904       .  S
O2180     Ni2181   1.958       .  S
Ni2181     O2185   1.910       .  S
Ni2181     O2183   1.950       .  S
O2182     Ni2187   1.937       .  S
C2184      O2185   1.276       .  A
C2184      C2266   1.456       .  S
O2189     Ni2195   1.912       .  S
O2189      C2210   1.270   1_655  A
O2190     Ni2213   1.904       .  S
O2190      C2199   1.270       .  A
O2191     Ni2195   1.908       .  S
O2191     Ni2213   1.913       .  S
O2191      H2214   0.967       .  S
C2192      O2209   1.281       .  A
C2192      O2201   1.278       .  A
C2192      C2285   1.455       .  S
O2193     Ni2212   1.904       .  S
O2194     Ni2212   1.920       .  S
O2194      C2196   1.270       .  A
Ni2195     O2198   1.940       .  S
Ni2195     O2200   1.905       .  S
C2196      O2206   1.277       .  A
C2196      C2261   1.493       .  S
O2197     Ni2213   1.921       .  S
O2197      C2203   1.267       .  A
O2198      C2203   1.272       .  A
C2199      C2241   1.448       .  S
O2200      C2202   1.271       .  A
O2201     Ni2212   1.895       .  S
C2202      O2208   1.286       .  A
C2202      C2277   1.481       .  S
C2203      C2257   1.482       .  S
H2204      O2205   0.965       .  S
O2205     Ni2207   1.862       .  S
O2205     Ni2212   1.869       .  S
O2206     Ni2207   1.944       .  S
Ni2207     O2211   1.902       .  S
Ni2207     O2209   1.928       .  S
O2208     Ni2213   1.978       .  S
C2210      C2245   1.458       .  S
O2215     Ni2221   1.903       .  S
O2216     Ni2239   1.888       .  S
O2217     Ni2221   1.878       .  S
C2218      O2235   1.276       .  A
C2218      C2254   1.491       .  S
O2219     Ni2238   1.918       .  S
O2219      C2225   1.274   1_655  A
O2220     Ni2238   1.913       .  S
O2220      C2222   1.276       .  A
Ni2221     O2226   1.915       .  S
C2222      C2274   1.471       .  S
O2223     Ni2239   1.944       .  S
O2223      C2229   1.283       .  A
O2224      C2229   1.278       .  A
C2225      C2246   1.469       .  S
O2227     Ni2238   1.936       .  S
C2228      O2234   1.271       .  A
C2228      C2250   1.481       .  S
C2229      C2281   1.483       .  S
H2230      O2231   0.966       .  S
O2231     Ni2238   1.908       .  S
O2232     Ni2233   1.945       .  S
Ni2233     O2237   1.907       .  S
Ni2233     O2235   1.940       .  S
O2234     Ni2239   1.934       .  S
C2236      O2237   1.270       .  A
C2236      C2242   1.464       .  S
C2241      C2242   1.336       .  D
C2241      H2243   1.088   1_655  S
C2242      H2244   1.087       .  S
C2245      C2246   1.340       .  D
C2245      H2247   1.088       .  S
C2249      C2250   1.352       .  D
C2249      H2251   1.087       .  S
C2253      C2254   1.359       .  D
C2253      H2255   1.086       .  S
C2257      C2258   1.347       .  D
C2257      H2259   1.086       .  S
C2258      H2260   1.088       .  S
C2261      C2262   1.359       .  D
C2261      H2263   1.086       .  S
C2262      H2264   1.087       .  S
C2265      C2266   1.342       .  D
C2265      H2267   1.086       .  S
C2266      H2268   1.089       .  S
C2269      C2270   1.338       .  D
C2269      H2271   1.088       .  S
C2270      H2272   1.087       .  S
C2273      C2274   1.339       .  D
C2273      H2275   1.087       .  S
C2274      H2276   1.087       .  S
C2277      C2278   1.343       .  D
C2277      H2279   1.087       .  S
C2278      H2280   1.087       .  S
C2281      C2282   1.344       .  D
C2281      H2283   1.088       .  S
C2282      H2284   1.086       .  S
C2285      C2286   1.337       .  D
C2285      H2287   1.088       .  S
C2286      H2288   1.088       .  S
C2289      C2290   1.341   1_554  D
C2289      H2291   1.086       .  S
C2290      H2292   1.089       .  S
C2293      H2295   1.087       .  S
C2294      H2296   1.089   1_655  S
C2297      C2298   1.363       .  D
C2297      H2299   1.087       .  S
C2298      H2300   1.086       .  S
C2301      C2302   1.353       .  D
C2302      H2304   1.086       .  S
C2305      C2306   1.355       .  D
C2305      H2307   1.087       .  S
C2306      H2308   1.086       .  S
C2309      C2310   1.357       .  D
C2310      H2312   1.088       .  S
C2313      C2314   1.338       .  D
C2313      H2315   1.088       .  S
C2314      H2316   1.086       .  S
C2317      H2319   1.087       .  S
C2318      H2320   1.089       .  S
C2321      C2322   1.344       .  D
C2321      H2323   1.087       .  S
C2322      H2324   1.087       .  S
C2325      C2326   1.337       .  D
C2325      H2327   1.086       .  S
C2326      H2328   1.088       .  S
C2329      C2330   1.343       .  D
C2329      H2331   1.087       .  S
C2330      H2332   1.087       .  S
C2333      C2334   1.344       .  D
C2333      H2335   1.087       .  S
C2334      H2336   1.087       .  S
C2337      H2339   1.089       .  S
C2338      H2340   1.086       .  S
C2341      C2342   1.336       .  D
C2341      H2343   1.087       .  S
C2342      H2344   1.088       .  S
C2345      C2346   1.364       .  D
C2345      H2347   1.086       .  S
C2346      H2348   1.086       .  S
C2349      C2350   1.354       .  D
C2350      H2352   1.086       .  S
C2353      C2354   1.356       .  D
C2353      H2355   1.086       .  S
C2354      H2356   1.087       .  S
C2357      C2358   1.361       .  D
C2358      H2360   1.088       .  S
C2361      H2363   1.086       .  S
C2362      H2364   1.089       .  S
C2365      C2366   1.332       .  D
C2365      H2367   1.089       .  S
C2366      H2368   1.087       .  S
C2369      C2370   1.344       .  D
C2369      H2371   1.087       .  S
C2370      H2372   1.087       .  S
C2373      C2374   1.338       .  D
C2373      H2375   1.087       .  S
C2374      H2376   1.087       .  S
C2377      C2378   1.347       .  D
C2377      H2379   1.087       .  S
C2378      H2380   1.086       .  S
C2381      C2382   1.334       .  D
C2381      H2383   1.087       .  S
C2382      H2384   1.088       .  S
C2385      C2386   1.340       .  D
C2385      H2387   1.087       .  S
C2386      H2388   1.087       .  S
C2389      C2390   1.337       .  D
C2389      H2391   1.088       .  S
C2390      H2392   1.088       .  S
C2393      C2394   1.352       .  D
C2393      H2395   1.087       .  S
C2394      H2396   1.086       .  S
C2397      C2398   1.357       .  D
C2397      H2399   1.086       .  S
C2398      H2400   1.087   1_565  S
C2401      C2402   1.338       .  D
C2401      H2403   1.087       .  S
C2405      C2406   1.341       .  D
C2406      H2408   1.088       .  S
C2409      C2410   1.347       .  D
C2409      H2411   1.087       .  S
C2410      H2412   1.087       .  S
C2413      C2414   1.358       .  D
C2413      H2415   1.087       .  S
C2414      H2416   1.086       .  S
C2417      C2418   1.339       .  D
C2418      H2420   1.086       .  S
C2421      C2422   1.328       .  D
C2422      H2424   1.089       .  S
C2425      C2426   1.344       .  D
C2425      H2427   1.087       .  S
C2426      H2428   1.086       .  S
C2429      C2430   1.336       .  D
C2429      H2431   1.087       .  S
C2430      H2432   1.087       .  S
