geometry optimzed in LAMMPS
_audit_creation_date              2020-12-01 
_audit_creation_method            'lammps2cif' 
_symmetry_space_group_name_H-M    'P1' 
_symmetry_Int_Tables_number       1 
_symmetry_cell_setting            triclinic 
loop_ 
_symmetry_equiv_pos_as_xyz 
  x,y,z 
_cell_length_a                    33.11177675 
_cell_length_b                    33.13629468064557 
_cell_length_c                    96.28350029966555 
_cell_angle_alpha                 90.12984360755146 
_cell_angle_beta                  89.93482490110421 
_cell_angle_gamma                 120.06311599922684 
loop_ 
_atom_site_label 
_atom_site_type_symbol 
_atom_site_fract_x 
_atom_site_fract_y 
_atom_site_fract_z 
_atom_site_charge 
Zr1        Zr  0.02439752  0.35280587  0.98171741     2.17500
O2          O  0.95157850  0.35363277  0.98499842    -0.51400
O3          O  0.98861169  0.29751429  0.00097015    -0.74600
O4          O  0.96300876  0.30641647  0.96478261    -0.81400
O5          O  0.08895523  0.46265767  0.00448280    -0.83200
O6          O  0.99587607  0.28745267  0.94713075    -0.78800
O7          O  0.02018832  0.41466223  0.99356275    -0.90400
O8          O  0.03406128  0.26619730  0.00591036    -0.76400
O9          O  0.04392048  0.29609651  0.97437825    -0.85900
O10         O  0.08121489  0.35916340  0.99826198    -0.85600
O11         O  0.05611925  0.37717359  0.95866894    -0.72300
O12         O  0.08934461  0.43115543  0.98039191    -0.84500
Zr13       Zr  0.19760023  0.40262893  0.96659720     2.26400
Zr14       Zr  0.07796914  0.32106890  0.95174520     2.06300
Zr15       Zr  0.14561549  0.43724459  0.99711612     2.10000
Zr16       Zr  0.10117231  0.30266573  0.99062152     1.78800
O17         O  0.19138930  0.52096463  0.00118900    -0.93300
O18         O  0.06452413  0.22134733  0.98335643    -0.41100
O19         O  0.16587995  0.38053745  0.98958137    -0.77700
O20         O  0.13445893  0.32344913  0.96766347    -0.96400
O21         O  0.14197016  0.39872796  0.95049333    -0.89700
O22         O  0.17797457  0.45914908  0.97442975    -0.92500
C23         C  0.99874413  0.27131407  0.00825657     1.01200
C24         C  0.04591119  0.44951266  0.00136599     1.14200
C25         C  0.96122963  0.28715898  0.95305144     1.04900
O26         O  0.06073489  0.24050956  0.95087526    -0.94700
O27         O  0.13629788  0.33234234  0.93453042    -0.90400
O28         O  0.20865106  0.38104662  0.94323345    -0.83600
C29         C  0.18091447  0.35581944  0.93349112     1.11600
O30         O  0.06520666  0.47527999  0.95005459    -0.96700
Zr31       Zr  0.12271169  0.45486274  0.95782352     1.88900
O32         O  0.24766602  0.47722592  0.95569599    -0.73300
O33         O  0.05804934  0.31640618  0.92713297    -0.52600
O34         O  0.11831001  0.45288345  0.93255549    -0.97200
O35         O  0.13779826  0.53040734  0.96636007    -0.54500
O36         O  0.20205929  0.50811948  0.95002562    -0.73800
C37         C  0.24152741  0.50960596  0.95071692     0.98500
O38         O  0.25196325  0.37312436  0.96686756    -0.62600
O39         O  0.14024522  0.42218136  0.02199419    -0.57400
O40         O  0.25814641  0.43947777  0.98369461    -0.94100
O41         O  0.22735914  0.45624942  0.00258599    -0.92600
O42         O  0.12855664  0.30377691  0.01416180    -0.92900
O43         O  0.15593062  0.27438336  0.99326276    -0.91700
C44         C  0.26074207  0.45402538  0.99616515     1.17400
H45         H  0.07009090  0.35436100  0.00771208     0.33300
H46         H  0.14499692  0.30243722  0.96461967     0.44200
H47         H  0.20480817  0.48997839  0.97531069     0.37700
H48         H  0.03293844  0.37651052  0.95245461     0.34200
H49         H  0.06018231  0.20379119  0.99206557     0.26000
H50         H  0.03521931  0.28325210  0.92518634     0.31900
H51         H  0.09369386  0.42063935  0.93029046     0.37800
H52         H  0.15968263  0.33224925  0.01463101     0.32300
H53         H  0.15679810  0.40457494  0.02339798     0.31100
H54         H  0.19991605  0.52411598  0.01114414     0.32800
H55         H  0.16194809  0.55364442  0.96010215     0.31800
H56         H  0.18035196  0.29151844  0.98620294     0.35800
H57         H  0.24849159  0.35949688  0.97621889     0.28500
H58         H  0.92646006  0.32065435  0.98575199     0.32700
H59         H  0.08222448  0.50184241  0.94361873     0.35600
H60         H  0.16089505  0.45299970  0.02627990     0.28200
H61         H  0.23836562  0.34565916  0.96062737     0.41100
H62         H  0.08604071  0.24141730  0.94515298     0.31100
H63         H  0.03250135  0.21284309  0.98050852     0.38800
H64         H  0.15401231  0.53451800  0.97533176     0.30600
H65         H  0.04048157  0.33316511  0.92607186     0.30700
H66         H  0.94554490  0.36495856  0.97616120     0.30900
Zr67       Zr  0.65785523  0.98111139  0.86681870     2.17500
O68         O  0.66132695  0.05365855  0.85984240    -0.51400
O69         O  0.70785627  0.00743479  0.84620166    -0.74600
O70         O  0.70930855  0.04831230  0.88120699    -0.81400
O71         O  0.53808296  0.90987557  0.84980785    -0.83200
O72         O  0.74562484  0.02523739  0.89656645    -0.78800
O73         O  0.59313394  0.98309945  0.85647909    -0.90400
O74         O  0.73366045  0.95714526  0.84176146    -0.76400
O75         O  0.71566337  0.96263389  0.87339859    -0.85900
O76         O  0.64274703  0.91601189  0.85247194    -0.85600
O77         O  0.64344781  0.96273707  0.89117911    -0.72300
O78         O  0.57999844  0.91978614  0.87200506    -0.84500
Zr79       Zr  0.61121636  0.81729894  0.88877960     2.26400
Zr80       Zr  0.70052334  0.94166287  0.89741600     2.06300
Zr81       Zr  0.56493726  0.85464579  0.85769316     2.10000
Zr82       Zr  0.70079950  0.89734924  0.85942977     1.78800
O83         O  0.48021842  0.80627621  0.85825748    -0.93300
O84         O  0.78514752  0.93511393  0.86245142    -0.41100
O85         O  0.62364010  0.83675124  0.86463803    -0.77700
O86         O  0.68977392  0.87685784  0.88370152    -0.96400
O87         O  0.62343971  0.88101345  0.90288401    -0.89700
O88         O  0.55211155  0.83436372  0.88179642    -0.92500
C89         C  0.73071907  0.99323347  0.83883831     1.01200
C90         C  0.55414506  0.95453511  0.85087987     1.14200
C91         C  0.73940857  0.05628749  0.89073447     1.04900
O92         O  0.78075739  0.95798306  0.89859368    -0.94700
O93         O  0.70456488  0.89282206  0.91522916    -0.90400
O94         O  0.65207814  0.81816468  0.90988866    -0.83600
C95         C  0.68350292  0.84913782  0.91782954     1.11600
O96         O  0.54702680  0.96057170  0.90013523    -0.96700
Zr97       Zr  0.56594894  0.89936126  0.89594958     1.88900
O98         O  0.54421208  0.77826179  0.90394319    -0.73300
O99         O  0.70261878  0.97520222  0.92017554    -0.52600
O100        O  0.57873805  0.92311150  0.92026029    -0.97200
O101        O  0.48566915  0.87748582  0.89051319    -0.54500
O102        O  0.51836130  0.82850541  0.90895654    -0.73800
C103        C  0.51661481  0.78914416  0.91007218     0.98500
O104        O  0.62379007  0.75088401  0.89045614    -0.62600
O105        O  0.56297062  0.84720629  0.83251267    -0.57400
O106        O  0.57400888  0.75165740  0.87335844    -0.94100
O107        O  0.54970416  0.77288455  0.85402086    -0.92600
O108        O  0.68189687  0.85358760  0.83775106    -0.92900
O109        O  0.72868440  0.84184097  0.85859240    -0.91700
C110        C  0.55606290  0.74325787  0.86119081     1.17400
H111        H  0.64421170  0.92296833  0.84269293     0.33300
H112        H  0.71142566  0.86708762  0.88662750     0.44200
H113        H  0.52099777  0.80801391  0.88288438     0.37700
H114        H  0.64781455  0.98935139  0.89649907     0.34200
H115        H  0.79816045  0.94243947  0.85292816     0.26000
H116        H  0.73611881  0.99616814  0.92225026     0.31900
H117        H  0.60121011  0.95704626  0.92011776     0.37800
H118        H  0.71240221  0.86267514  0.83341755     0.32300
H119        H  0.59087713  0.84486688  0.83020690     0.31100
H120        H  0.46882828  0.82827710  0.86010706     0.32800
H121        H  0.47048186  0.87424939  0.89963062     0.31800
H122        H  0.71540266  0.82212843  0.86693968     0.35800
H123        H  0.65779419  0.76423323  0.89177455     0.28500
H124        H  0.69457656  0.07605491  0.85785371     0.32700
H125        H  0.56590695  0.98507004  0.89326968     0.35600
H126        H  0.53631923  0.81562649  0.83064496     0.28200
H127        H  0.60943386  0.73536195  0.89935915     0.41100
H128        H  0.79560721  0.98252244  0.90578772     0.31100
H129        H  0.79450882  0.96587546  0.86664895     0.38800
H130        H  0.47128207  0.84520746  0.88690642     0.30600
H131        H  0.68994728  0.99633075  0.91875935     0.30700
H132        H  0.65385994  0.06603437  0.86823267     0.30900
Zr133      Zr  0.66304349  0.65358817  0.31636959     2.17500
O134        O  0.66932534  0.58432180  0.32077175    -0.51400
O135        O  0.71702635  0.67445475  0.33601542    -0.74600
O136        O  0.70977110  0.63999768  0.29936720    -0.81400
O137        O  0.55672124  0.60791723  0.33952483    -0.83200
O138        O  0.75033196  0.70683872  0.28713904    -0.78800
O139        O  0.60202392  0.58603854  0.32758073    -0.90400
O140        O  0.74046051  0.74844002  0.34304226    -0.76400
O141        O  0.72010185  0.73093304  0.31034364    -0.85900
O142        O  0.65118989  0.70164804  0.33241176    -0.85600
O143        O  0.64350190  0.66125561  0.29282866    -0.72300
O144        O  0.58376758  0.63652454  0.31367407    -0.84500
Zr145      Zr  0.61412583  0.77450597  0.29959501     2.26400
Zr146      Zr  0.70041943  0.74027041  0.28708588     2.06300
Zr147      Zr  0.57271297  0.68554083  0.32973801     2.10000
Zr148      Zr  0.70855980  0.77930874  0.32623227     1.78800
O149        O  0.48781114  0.64049079  0.32905262    -0.93300
O150        O  0.79269744  0.82097274  0.32249540    -0.41100
O151        O  0.63039375  0.76333592  0.32313838    -0.77700
O152        O  0.69324771  0.79237511  0.30269534    -0.96400
O153        O  0.62236676  0.72425095  0.28392258    -0.89700
O154        O  0.55593383  0.69755973  0.30647737    -0.92500
C155        C  0.73889444  0.70920778  0.34431229     1.01200
C156        C  0.57070058  0.57842902  0.33660099     1.14200
C157        C  0.74122622  0.66595715  0.29061069     1.04900
O158        O  0.77694996  0.80941353  0.28422279    -0.94700
O159        O  0.69498980  0.78942383  0.26948382    -0.90400
O160        O  0.64477931  0.81242333  0.27714626    -0.83600
C161        C  0.67266957  0.81149571  0.26799361     1.11600
O162        O  0.54311709  0.56810739  0.28418699    -0.96700
Zr163      Zr  0.56521443  0.64782608  0.29051844     1.88900
O164        O  0.54273941  0.74891088  0.28660402    -0.73300
O165        O  0.70210730  0.70883016  0.26428170    -0.52600
O166        O  0.57343456  0.64106558  0.26561085    -0.97200
O167        O  0.48705147  0.58915307  0.29790361    -0.54500
O168        O  0.51528177  0.67381475  0.27996773    -0.73800
C169        C  0.51303325  0.71138594  0.28036115     0.98500
O170        O  0.63951133  0.85747090  0.30052214    -0.62600
O171        O  0.57121947  0.69330535  0.35488242    -0.57400
O172        O  0.57576994  0.79834883  0.31600464    -0.94100
O173        O  0.55438181  0.74952853  0.33470225    -0.92600
O174        O  0.69779817  0.80677123  0.34866356    -0.92900
O175        O  0.73866315  0.86307702  0.32713682    -0.91700
C176        C  0.55870831  0.78597384  0.32820135     1.17400
H177        H  0.65388774  0.69421064  0.34187371     0.33300
H178        H  0.71445657  0.82428851  0.30003299     0.44200
H179        H  0.52486395  0.69323046  0.30636464     0.37700
H180        H  0.64619677  0.63963586  0.28669313     0.34200
H181        H  0.80115628  0.79642624  0.32131112     0.26000
H182        H  0.73538193  0.72535974  0.26150374     0.31900
H183        H  0.60366769  0.64207257  0.26455072     0.37800
H184        H  0.66545484  0.80107846  0.34846760     0.32300
H185        H  0.54044668  0.66718154  0.35774818     0.31100
H186        H  0.48001067  0.60762035  0.33001214     0.32800
H187        H  0.47155311  0.60696434  0.30056865     0.31800
H188        H  0.71099123  0.86652687  0.32556493     0.35800
H189        H  0.67295190  0.87374997  0.29792875     0.28500
H190        H  0.70309452  0.59525896  0.32153325     0.32700
H191        H  0.51841585  0.55870246  0.27706270     0.35600
H192        H  0.59399728  0.68489631  0.35850520     0.28200
H193        H  0.62366408  0.86314570  0.29268401     0.41100
H194        H  0.79884791  0.80177142  0.28892126     0.31100
H195        H  0.79699921  0.83504715  0.31316651     0.38800
H196        H  0.49172953  0.57708137  0.30679320     0.30600
H197        H  0.69422824  0.67615904  0.26581631     0.30700
H198        H  0.65889750  0.56526113  0.31218594     0.30900
Zr199      Zr  0.03243832  0.65672851  0.20057013     2.17500
O200        O  0.96156045  0.58193832  0.19658868    -0.51400
O201        O  0.00035328  0.67609192  0.18048959    -0.74600
O202        O  0.96710409  0.64408241  0.21542756    -0.81400
O203        O  0.10209194  0.60813615  0.18202747    -0.83200
O204        O  0.99361018  0.70260780  0.23132939    -0.78800
O205        O  0.02970763  0.59046509  0.18944746    -0.90400
O206        O  0.04980355  0.75064019  0.17410112    -0.76400
O207        O  0.05124194  0.73380199  0.20641643    -0.85900
O208        O  0.09379983  0.70460100  0.18483489    -0.85600
O209        O  0.05606873  0.66558316  0.22456393    -0.72300
O210        O  0.09560362  0.64227269  0.20476656    -0.84500
Zr211      Zr  0.19964979  0.77938701  0.21922715     2.26400
Zr212      Zr  0.07741957  0.74444430  0.23010446     2.06300
Zr213      Zr  0.15718160  0.69069427  0.18914927     2.10000
Zr214      Zr  0.11275932  0.78200614  0.19094920     1.78800
O215        O  0.20425457  0.65309987  0.18838395    -0.93300
O216        O  0.07239023  0.82584349  0.19421000    -0.41100
O217        O  0.17573854  0.76813539  0.19534573    -0.77700
O218        O  0.13825876  0.79605102  0.21483638    -0.96400
O219        O  0.13932139  0.72945183  0.23446013    -0.89700
O220        O  0.18188049  0.70233823  0.21281590    -0.92500
C221        C  0.01267308  0.71110710  0.17238273     1.01200
C222        C  0.05763496  0.57972586  0.18354345     1.14200
C223        C  0.96123021  0.66561631  0.22562821     1.04900
O224        O  0.06144135  0.80857175  0.23078061    -0.94700
O225        O  0.13011015  0.79810228  0.24753112    -0.90400
O226        O  0.20349122  0.81604790  0.24161929    -0.83600
C227        C  0.17413902  0.81841477  0.24987836     1.11600
O228        O  0.05744625  0.57490356  0.23379999    -0.96700
Zr229      Zr  0.12078190  0.65296313  0.22832863     1.88900
O230        O  0.24422932  0.75524598  0.23335808    -0.73300
O231        O  0.05129319  0.71815232  0.25378028    -0.52600
O232        O  0.10578537  0.64713806  0.25321535    -0.97200
O233        O  0.13700330  0.59037324  0.22326265    -0.54500
O234        O  0.19630713  0.67950580  0.23920511    -0.73800
C235        C  0.23596800  0.71735677  0.23940604     0.98500
O236        O  0.25355855  0.86347947  0.21857867    -0.62600
O237        O  0.15893249  0.69563498  0.16391323    -0.57400
O238        O  0.26478301  0.80191427  0.20393769    -0.94100
O239        O  0.23950804  0.75457455  0.18485377    -0.92600
O240        O  0.15026218  0.80475794  0.16827850    -0.92900
O241        O  0.16783302  0.86531534  0.18911502    -0.91700
C242        C  0.27085730  0.79043085  0.19174332     1.17400
H243        H  0.08461885  0.69710732  0.17524511     0.33300
H244        H  0.14835573  0.82797430  0.21730273     0.44200
H245        H  0.20859467  0.69805041  0.21339094     0.37700
H246        H  0.03063304  0.64400545  0.23037326     0.34200
H247        H  0.07483963  0.84081108  0.18511720     0.26000
H248        H  0.02838740  0.72813495  0.25597934     0.31900
H249        H  0.11369332  0.62362448  0.25649024     0.37800
H250        H  0.18096023  0.80689460  0.16952178     0.32300
H251        H  0.17495196  0.72946725  0.16192456     0.31100
H252        H  0.18970284  0.62766675  0.19529416     0.32800
H253        H  0.17116766  0.60615369  0.22181734     0.31800
H254        H  0.19898472  0.86810612  0.18972577     0.35800
H255        H  0.25453953  0.87227237  0.20871287     0.28500
H256        H  0.93719121  0.58944110  0.19392419     0.32700
H257        H  0.03878115  0.56404551  0.22515540     0.35600
H258        H  0.18154100  0.68591854  0.16105935     0.28200
H259        H  0.23706588  0.87780554  0.22320456     0.41100
H260        H  0.04299106  0.80330490  0.23936926     0.31100
H261        H  0.03895756  0.80192158  0.19501188     0.38800
H262        H  0.12356026  0.57897370  0.21392143     0.30600
H263        H  0.03271133  0.68370786  0.25321173     0.30700
H264        H  0.95180114  0.56659254  0.20576954     0.30900
Zr265      Zr  0.67519769  0.01441947  0.15000453     2.17500
O266        O  0.59725751  0.94613539  0.15187838    -0.51400
O267        O  0.69177259  0.98018252  0.16997449    -0.74600
O268        O  0.66368022  0.94882100  0.13546771    -0.81400
O269        O  0.62902624  0.08264056  0.16983182    -0.83200
O270        O  0.72474838  0.97562907  0.12054281    -0.78800
O271        O  0.60991851  0.01023227  0.16205179    -0.90400
O272        O  0.76624024  0.02747541  0.17694576    -0.76400
O273        O  0.75216967  0.03147595  0.14470055    -0.85900
O274        O  0.72323361  0.07436696  0.16620807    -0.85600
O275        O  0.68555845  0.03946081  0.12618739    -0.72300
O276        O  0.66201740  0.07856113  0.14620342    -0.84500
Zr277      Zr  0.80138973  0.18126364  0.13212407     2.26400
Zr278      Zr  0.76429654  0.05907338  0.12120967     2.06300
Zr279      Zr  0.71115086  0.13889986  0.16207441     2.10000
Zr280      Zr  0.80060202  0.09197312  0.16046250     1.78800
O281        O  0.67173976  0.18434404  0.16223046    -0.93300
O282        O  0.84696099  0.05442241  0.15676706    -0.41100
O283        O  0.78818348  0.15568173  0.15588492    -0.77700
O284        O  0.81670567  0.11896162  0.13664366    -0.96400
O285        O  0.75059895  0.12179798  0.11679858    -0.89700
O286        O  0.72481008  0.16557131  0.13854039    -0.92500
C287        C  0.72559792  0.99133639  0.17845001     1.01200
C288        C  0.60012632  0.03817085  0.16835111     1.14200
C289        C  0.68739928  0.94298326  0.12593559     1.04900
O290        O  0.83145149  0.04772120  0.12033626    -0.94700
O291        O  0.81444444  0.10985697  0.10320536    -0.90400
O292        O  0.83786637  0.18401875  0.10960977    -0.83600
C293        C  0.83708639  0.15378317  0.10100738     1.11600
O294        O  0.59512871  0.04511441  0.11749309    -0.96700
Zr295      Zr  0.67466069  0.10555161  0.12283222     1.88900
O296        O  0.77924321  0.22799703  0.11832794    -0.73300
O297        O  0.73961888  0.02925354  0.09768980    -0.52600
O298        O  0.66542474  0.09104019  0.09792482    -0.97200
O299        O  0.61533790  0.12573583  0.12865863    -0.54500
O300        O  0.70374781  0.18153179  0.11203613    -0.73800
C301        C  0.74205877  0.22076707  0.11204155     0.98500
O302        O  0.88455128  0.23860574  0.13221775    -0.62600
O303        O  0.71606369  0.14529371  0.18729072    -0.57400
O304        O  0.82747562  0.24431943  0.14839748    -0.94100
O305        O  0.77718002  0.21984666  0.16680034    -0.92600
O306        O  0.82360422  0.12909209  0.18318183    -0.92900
O307        O  0.88299279  0.14653150  0.16478330    -0.91700
C308        C  0.81483811  0.25028672  0.16043064     1.17400
H309        H  0.71505490  0.06490198  0.17575627     0.33300
H310        H  0.84856114  0.12849637  0.13423715     0.44200
H311        H  0.72145008  0.19283349  0.13806911     0.37700
H312        H  0.66407563  0.01431737  0.12024314     0.34200
H313        H  0.82474736  0.02297182  0.15314311     0.26000
H314        H  0.75351605  0.00942408  0.09574890     0.31900
H315        H  0.67622575  0.06850008  0.09622050     0.37800
H316        H  0.81950409  0.15664099  0.18256266     0.32300
H317        H  0.74964159  0.15888758  0.18941562     0.31100
H318        H  0.69604197  0.21634637  0.16484778     0.32800
H319        H  0.61163859  0.14024466  0.12013647     0.31800
H320        H  0.89538132  0.16290797  0.15585837     0.35800
H321        H  0.90044063  0.22071405  0.13012438     0.28500
H322        H  0.60180745  0.91990174  0.15461918     0.32700
H323        H  0.58615555  0.02295468  0.12533373     0.35600
H324        H  0.70935443  0.17058378  0.18946034     0.28200
H325        H  0.88987969  0.25829013  0.12392348     0.41100
H326        H  0.82222813  0.01943957  0.12595448     0.31100
H327        H  0.86736730  0.07100564  0.14876855     0.38800
H328        H  0.63068367  0.15178735  0.13536848     0.30600
H329        H  0.70559548  0.00731295  0.09824171     0.30700
H330        H  0.58464228  0.93880144  0.14230598     0.30900
Zr331      Zr  0.66864134  0.64102088  0.03580452     2.17500
O332        O  0.59343832  0.63676026  0.03231002    -0.51400
O333        O  0.68750717  0.69445161  0.01607431    -0.74600
O334        O  0.65291422  0.68855026  0.05205185    -0.81400
O335        O  0.61984486  0.52583971  0.01558093    -0.83200
O336        O  0.70372385  0.70792033  0.06998310    -0.78800
O337        O  0.60160595  0.57778124  0.02500475    -0.90400
O338        O  0.76330921  0.72360047  0.01042275    -0.76400
O339        O  0.74576358  0.69972247  0.04169436    -0.85900
O340        O  0.71676831  0.63036860  0.01934550    -0.85600
O341        O  0.67860968  0.62209847  0.05930884    -0.72300
O342        O  0.65520826  0.56317166  0.03869427    -0.84500
Zr343      Zr  0.79321352  0.59610696  0.05194374     2.26400
Zr344      Zr  0.75725569  0.68079612  0.06481337     2.06300
Zr345      Zr  0.70302843  0.55244710  0.02221772     2.10000
Zr346      Zr  0.79433881  0.68846948  0.02569765     1.78800
O347        O  0.66307735  0.46758952  0.02158020    -0.93300
O348        O  0.84090888  0.77203527  0.03007592    -0.41100
O349        O  0.78079296  0.61115759  0.02848512    -0.77700
O350        O  0.80941548  0.67450156  0.04906930    -0.96400
O351        O  0.74314931  0.60347454  0.06801103    -0.89700
O352        O  0.71648006  0.53666295  0.04541255    -0.92500
C353        C  0.72332502  0.71976143  0.00844612     1.01200
C354        C  0.59090928  0.54062115  0.01822989     1.14200
C355        C  0.66915318  0.70732094  0.06392157     1.04900
O356        O  0.81618625  0.76214078  0.06121830    -0.94700
O357        O  0.81079553  0.67804253  0.08141371    -0.90400
O358        O  0.83402094  0.62800121  0.07375707    -0.83600
C359        C  0.83432249  0.65709822  0.08265485     1.11600
O360        O  0.58863118  0.52800849  0.06794354    -0.96700
Zr361      Zr  0.66694770  0.54475931  0.06170941     1.88900
O362        O  0.77171564  0.52731724  0.06549063    -0.73300
O363        O  0.75781456  0.70190754  0.08917441    -0.52600
O364        O  0.65956561  0.54643178  0.08684487    -0.97200
O365        O  0.60692141  0.46702252  0.05445129    -0.54500
O366        O  0.69556922  0.49605169  0.07153702    -0.73800
C367        C  0.73441827  0.49617065  0.07141631     0.98500
O368        O  0.87728724  0.62745100  0.05041722    -0.62600
O369        O  0.70823144  0.55617919  0.99695424    -0.57400
O370        O  0.81331358  0.55270812  0.03629947    -0.94100
O371        O  0.76655842  0.53386971  0.01718378    -0.92600
O372        O  0.81781403  0.67785501  0.00261415    -0.92900
O373        O  0.87735815  0.71645296  0.02301966    -0.91700
C374        C  0.80177716  0.53655390  0.02398900     1.17400
H375        H  0.70929607  0.63362848  0.00979134     0.33300
H376        H  0.84139200  0.69620055  0.05157731     0.44200
H377        H  0.71295898  0.50591609  0.04552512     0.37700
H378        H  0.65615284  0.62309603  0.06546772     0.34200
H379        H  0.85278047  0.78604488  0.02083151     0.26000
H380        H  0.76503626  0.73474813  0.08924702     0.31900
H381        H  0.67195940  0.57974608  0.08911998     0.37800
H382        H  0.81263484  0.64570881  0.00262270     0.32300
H383        H  0.69505047  0.52341490  0.99393736     0.31100
H384        H  0.65666822  0.45935026  0.01162724     0.32800
H385        H  0.60786485  0.44570139  0.06146249     0.31800
H386        H  0.88000801  0.68803672  0.02357442     0.35800
H387        H  0.88240956  0.60125564  0.05273930     0.28500
H388        H  0.60022573  0.66920906  0.03103638     0.32700
H389        H  0.57648344  0.50138405  0.07446257     0.35600
H390        H  0.68480278  0.56467218  0.99397892     0.28200
H391        H  0.88515309  0.63364753  0.04043722     0.41100
H392        H  0.80797605  0.77973925  0.06786178     0.31100
H393        H  0.81803084  0.78183336  0.03252202     0.38800
H394        H  0.61939120  0.46068205  0.04589440     0.30600
H395        H  0.72514027  0.68346608  0.09244302     0.30700
H396        H  0.57660103  0.62655500  0.04127965     0.30900
Zr397      Zr  0.37850740  0.34322233  0.81552631     2.17500
O398        O  0.39162645  0.42260077  0.81620002    -0.51400
O399        O  0.32633048  0.33244732  0.83475739    -0.74600
O400        O  0.33025000  0.35771757  0.79929744    -0.81400
O401        O  0.48543823  0.38366439  0.83878714    -0.83200
O402        O  0.30234154  0.30009243  0.78311116    -0.78800
O403        O  0.44125779  0.40794744  0.82732257    -0.90400
O404        O  0.29272296  0.25818386  0.84246438    -0.76400
O405        O  0.31624152  0.26710673  0.81046779    -0.85900
O406        O  0.38420109  0.29513516  0.83302885    -0.85600
O407        O  0.39536202  0.32799752  0.79246027    -0.72300
O408        O  0.45454384  0.35126638  0.81362115    -0.84500
Zr409      Zr  0.41219464  0.20839159  0.80205499     2.26400
Zr410      Zr  0.33388753  0.24999911  0.78777966     2.06300
Zr411      Zr  0.45953916  0.30199218  0.83087563     2.10000
Zr412      Zr  0.32214464  0.21873041  0.82766010     1.78800
O413        O  0.54437133  0.34021126  0.83082142    -0.93300
O414        O  0.23889725  0.17668033  0.82249819    -0.41100
O415        O  0.39715109  0.22522438  0.82521915    -0.77700
O416        O  0.33570980  0.19848050  0.80470761    -0.96400
O417        O  0.40936667  0.25866009  0.78523124    -0.89700
O418        O  0.47435233  0.28440083  0.80804041    -0.92500
C419        C  0.30045651  0.30019081  0.84332368     1.01200
C420        C  0.47435627  0.41495104  0.83555202     1.14200
C421        C  0.30649486  0.33741130  0.78837361     1.04900
O422        O  0.25152394  0.19065093  0.78818876    -0.94700
O423        O  0.33143780  0.19152084  0.77216224    -0.90400
O424        O  0.38086218  0.16799880  0.77996371    -0.83600
C425        C  0.35165808  0.16733120  0.77102257     1.11600
O426        O  0.49541061  0.41529303  0.78571029    -0.96700
Zr427      Zr  0.47077762  0.33423836  0.79093316     1.88900
O428        O  0.48268448  0.22572462  0.78946615    -0.73300
O429        O  0.33132676  0.26368676  0.76298262    -0.52600
O430        O  0.46646012  0.34188647  0.76589983    -0.97200
O431        O  0.55193187  0.38741918  0.79721597    -0.54500
O432        O  0.51469918  0.29972540  0.78146463    -0.73800
C433        C  0.51442200  0.26102556  0.78287224     0.98500
O434        O  0.37674899  0.12378232  0.80394811    -0.62600
O435        O  0.45765221  0.29786683  0.85615373    -0.57400
O436        O  0.45068332  0.18607529  0.81878734    -0.94100
O437        O  0.47440653  0.23692593  0.83702456    -0.92600
O438        O  0.32972419  0.19794003  0.85138596    -0.92900
O439        O  0.28823208  0.13543442  0.83173069    -0.91700
C440        C  0.46842630  0.19932989  0.83087779     1.17400
H441        H  0.38196403  0.30496025  0.84229345     0.33300
H442        H  0.31236102  0.16671906  0.80254829     0.44200
H443        H  0.50430668  0.28609423  0.80819757     0.37700
H444        H  0.39459122  0.34964111  0.78591083     0.34200
H445        H  0.22349300  0.16724272  0.83168233     0.26000
H446        H  0.29860065  0.25484346  0.76094369     0.31900
H447        H  0.43899008  0.34579664  0.76450927     0.37800
H448        H  0.34189099  0.22726503  0.85676355     0.32300
H449        H  0.44166139  0.31489257  0.85914738     0.31100
H450        H  0.55246138  0.33390021  0.84015102     0.32800
H451        H  0.56684133  0.36796687  0.79763593     0.31800
H452        H  0.31273291  0.12845255  0.82876623     0.35800
H453        H  0.37099851  0.11681695  0.81397977     0.28500
H454        H  0.36092483  0.41972039  0.81815627     0.32700
H455        H  0.51932278  0.42463141  0.77834403     0.35600
H456        H  0.43519002  0.26479211  0.85827479     0.28200
H457        H  0.34500916  0.11074011  0.80000757     0.41100
H458        H  0.23470027  0.20806870  0.78696841     0.31100
H459        H  0.23183368  0.20076731  0.81921539     0.38800
H460        H  0.55057532  0.39561063  0.80702778     0.30600
H461        H  0.34946608  0.29795382  0.76179222     0.30700
H462        H  0.39952286  0.43467614  0.80658847     0.30900
Zr463      Zr  0.00058484  0.33649577  0.70131426     2.17500
O464        O  0.07292156  0.41042339  0.69783239    -0.51400
O465        O  0.03287872  0.32339172  0.67986922    -0.74600
O466        O  0.06516621  0.34842031  0.71653023    -0.81400
O467        O  0.93210055  0.38666232  0.68347484    -0.83200
O468        O  0.03823025  0.28634660  0.73101580    -0.78800
O469        O  0.00282116  0.40535271  0.69259888    -0.90400
O470        O  0.98543556  0.24938511  0.67251705    -0.76400
O471        O  0.98306933  0.25870376  0.70538571    -0.85900
O472        O  0.94035811  0.29082893  0.68493506    -0.85600
O473        O  0.97424011  0.32140700  0.72510839    -0.72300
O474        O  0.93615343  0.34879652  0.70617662    -0.84500
Zr475      Zr  0.83297809  0.20699590  0.71786574     2.26400
Zr476      Zr  0.95475584  0.24199750  0.72884355     2.06300
Zr477      Zr  0.87606410  0.30266866  0.68975776     2.10000
Zr478      Zr  0.92266338  0.21262667  0.68927054     1.78800
O479        O  0.82963831  0.34099188  0.68957072    -0.93300
O480        O  0.96505348  0.17031022  0.69110276    -0.41100
O481        O  0.85817037  0.22394662  0.69412288    -0.77700
O482        O  0.89539908  0.19237086  0.71284020    -0.96400
O483        O  0.89158957  0.25464525  0.73398620    -0.89700
O484        O  0.84898405  0.28456399  0.71318843    -0.92500
C485        C  0.02098332  0.29016945  0.67100372     1.01200
C486        C  0.97584562  0.41603476  0.68612705     1.14200
C487        C  0.07083441  0.32479429  0.72610670     1.04900
O488        O  0.96780244  0.17629956  0.72614679    -0.94700
O489        O  0.90107367  0.19006699  0.74650060    -0.90400
O490        O  0.82746998  0.16665207  0.73949302    -0.83600
C491        C  0.85666507  0.16720086  0.74834616     1.11600
O492        O  0.96519909  0.40989979  0.73708979    -0.96700
Zr493      Zr  0.90808512  0.33153900  0.72949667     1.88900
O494        O  0.78629919  0.22562302  0.73284055    -0.73300
O495        O  0.99162152  0.26001717  0.75166203    -0.52600
O496        O  0.92560077  0.33681997  0.75421140    -0.97200
O497        O  0.88818692  0.39160911  0.72466879    -0.54500
O498        O  0.83132088  0.29996780  0.74035019    -0.73800
C499        C  0.79231525  0.26132587  0.73968727     0.98500
O500        O  0.77828117  0.12299937  0.71680373    -0.62600
O501        O  0.87536651  0.29884982  0.66448899    -0.57400
O502        O  0.76821034  0.18807211  0.70286806    -0.94100
O503        O  0.79288633  0.24065933  0.68511696    -0.92600
O504        O  0.88391599  0.19069163  0.66675918    -0.92900
O505        O  0.87140786  0.12896861  0.68615347    -0.91700
C506        C  0.76163858  0.20309225  0.69137040     1.17400
H507        H  0.94953577  0.30048702  0.67546008     0.33300
H508        H  0.88565864  0.16010973  0.71462417     0.44200
H509        H  0.82164812  0.28771200  0.71399057     0.37700
H510        H  0.99884557  0.34188470  0.73138038     0.34200
H511        H  0.96782259  0.16185347  0.68141878     0.26000
H512        H  0.97319763  0.27011812  0.75728859     0.31900
H513        H  0.90652240  0.34893985  0.75846487     0.37800
H514        H  0.89643280  0.17251284  0.66214532     0.32300
H515        H  0.85809810  0.26507831  0.66233575     0.31100
H516        H  0.81772498  0.33712917  0.67994814     0.32800
H517        H  0.86854274  0.39035670  0.73260281     0.31800
H518        H  0.84073186  0.12270909  0.68970554     0.35800
H519        H  0.77052719  0.11527407  0.70687254     0.28500
H520        H  0.09767270  0.40259288  0.69605345     0.32700
H521        H  0.99311204  0.41844752  0.73132419     0.35600
H522        H  0.85415399  0.31019575  0.66156339     0.28200
H523        H  0.79697495  0.10817628  0.71913621     0.41100
H524        H  0.99846697  0.18959275  0.72145709     0.31100
H525        H  0.99727511  0.19407915  0.69372092     0.38800
H526        H  0.86642448  0.37940852  0.71669830     0.30600
H527        H  0.98474076  0.22976025  0.75569536     0.30700
H528        H  0.08076122  0.42662371  0.70692550     0.30900
Zr529      Zr  0.00504711  0.63473359  0.48262948     2.17500
O530        O  0.07560383  0.63122589  0.48767232    -0.51400
O531        O  0.03479089  0.68541872  0.50305054    -0.74600
O532        O  0.07289433  0.68487502  0.46821518    -0.81400
O533        O  0.93122431  0.51538365  0.49935736    -0.83200
O534        O  0.05054124  0.72172199  0.45286893    -0.78800
O535        O  0.00573108  0.57106534  0.49416814    -0.90400
O536        O  0.98711022  0.71383400  0.50824807    -0.76400
O537        O  0.98974187  0.69513843  0.47651773    -0.85900
O538        O  0.94199057  0.62297381  0.49748074    -0.85600
O539        O  0.98444000  0.62105833  0.45836938    -0.72300
O540        O  0.94107291  0.55763550  0.47773896    -0.84500
Zr541      Zr  0.84294973  0.59684330  0.46186569     2.26400
Zr542      Zr  0.96718565  0.68119552  0.45253750     2.06300
Zr543      Zr  0.87820119  0.54636086  0.49259398     2.10000
Zr544      Zr  0.92620351  0.68328120  0.49088920     1.78800
O545        O  0.83109626  0.46261873  0.49630843    -0.93300
O546        O  0.96689241  0.76676473  0.48623137    -0.41100
O547        O  0.86236904  0.60702940  0.48613189    -0.77700
O548        O  0.90473490  0.67411856  0.46673841    -0.96400
O549        O  0.90419351  0.60524911  0.44737060    -0.89700
O550        O  0.85663751  0.53534824  0.46869738    -0.92500
C551        C  0.02275030  0.70953074  0.51067943     1.01200
C552        C  0.97601041  0.53124982  0.49901413     1.14200
C553        C  0.08117153  0.71470209  0.45859389     1.04900
O554        O  0.99051879  0.76352784  0.45174755    -0.94700
O555        O  0.91915723  0.68576327  0.43437415    -0.90400
O556        O  0.84440050  0.63011477  0.43918766    -0.83600
C557        C  0.87564792  0.66186397  0.43141096     1.11600
O558        O  0.97919505  0.52579819  0.44908829    -0.96700
Zr559      Zr  0.91835466  0.54468943  0.45392225     1.88900
O560        O  0.79710148  0.52795385  0.44799959    -0.73300
O561        O  0.99870466  0.68270211  0.42949355    -0.52600
O562        O  0.93619413  0.54977962  0.42922195    -0.97200
O563        O  0.89330845  0.46401341  0.45977486    -0.54500
O564        O  0.84354250  0.49816539  0.44236375    -0.73800
C565        C  0.80448126  0.49759409  0.44209817     0.98500
O566        O  0.78700388  0.62428708  0.46131281    -0.62600
O567        O  0.87454033  0.55553639  0.51758979    -0.57400
O568        O  0.77529063  0.55568169  0.47589938    -0.94100
O569        O  0.79232012  0.52062045  0.49346877    -0.92600
O570        O  0.89072849  0.67695445  0.51353649    -0.92900
O571        O  0.86862772  0.70838254  0.49234046    -0.91700
C572        C  0.76356967  0.52877452  0.48642159     1.17400
H573        H  0.94990569  0.62443939  0.50719011     0.33300
H574        H  0.89580695  0.69665045  0.46404080     0.44200
H575        H  0.82924434  0.50482398  0.46797312     0.37700
H576        H  0.01021644  0.62415602  0.45287880     0.34200
H577        H  0.96175700  0.78079648  0.49465562     0.26000
H578        H  0.02158402  0.71589062  0.42763653     0.31900
H579        H  0.91694286  0.56146375  0.42487782     0.37800
H580        H  0.88335240  0.64591866  0.51702406     0.32300
H581        H  0.84118854  0.53527917  0.51996617     0.31100
H582        H  0.83828462  0.45780255  0.50593590     0.32800
H583        H  0.88387686  0.44704925  0.45081290     0.31800
H584        H  0.83843048  0.67989762  0.49036335     0.35800
H585        H  0.80608883  0.65852777  0.46020359     0.28500
H586        H  0.10026264  0.66346594  0.48994605     0.32700
H587        H  0.00252957  0.54171807  0.45653441     0.35600
H588        H  0.89020668  0.53949936  0.52163344     0.28200
H589        H  0.76996323  0.61284276  0.45241714     0.41100
H590        H  0.96117259  0.76436822  0.45263222     0.31100
H591        H  0.00048385  0.77663905  0.48654019     0.38800
H592        H  0.86368179  0.45273987  0.46492632     0.30600
H593        H  0.01770893  0.66745334  0.43054482     0.30700
H594        H  0.08549145  0.62349032  0.47881791     0.30900
Zr595      Zr  0.37614431  0.00694916  0.36921442     2.17500
O596        O  0.37693840  0.93546520  0.36337578    -0.51400
O597        O  0.32566436  0.97665921  0.34876818    -0.74600
O598        O  0.32716160  0.94021864  0.38399385    -0.81400
O599        O  0.49334877  0.07814193  0.35057793    -0.83200
O600        O  0.29613030  0.96459902  0.40080803    -0.78800
O601        O  0.44139260  0.00594097  0.35874119    -0.90400
O602        O  0.29659495  0.02392053  0.34367782    -0.76400
O603        O  0.31668912  0.02345900  0.37588206    -0.85900
O604        O  0.38722123  0.06863491  0.35397930    -0.85600
O605        O  0.39178908  0.02929954  0.39337587    -0.72300
O606        O  0.45379895  0.07090969  0.37324297    -0.84500
Zr607      Zr  0.41760683  0.17089112  0.38925258     2.26400
Zr608      Zr  0.33312066  0.04816661  0.39973625     2.06300
Zr609      Zr  0.46438036  0.13257411  0.35803933     2.10000
Zr610      Zr  0.32805401  0.08569558  0.36097026     1.78800
O611        O  0.54778578  0.17707210  0.35330994    -0.93300
O612        O  0.24373731  0.04645949  0.36404151    -0.41100
O613        O  0.40493806  0.14977212  0.36507461    -0.77700
O614        O  0.33967087  0.10892910  0.38504950    -0.96400
O615        O  0.41003054  0.11060713  0.40399616    -0.89700
O616        O  0.47755725  0.15531002  0.38181935    -0.92500
C617        C  0.30118824  0.98836085  0.34123623     1.01200
C618        C  0.47905710  0.03403117  0.35242386     1.14200
C619        C  0.30117608  0.93327180  0.39461871     1.04900
O620        O  0.25233716  0.03043670  0.40031027    -0.94700
O621        O  0.33533717  0.10007537  0.41805918    -0.90400
O622        O  0.38846125  0.17440742  0.41225531    -0.83600
C623        C  0.35849680  0.14404186  0.42064907     1.11600
O624        O  0.48216418  0.03053315  0.40253949    -0.96700
Zr625      Zr  0.46904927  0.09471819  0.39693269     1.88900
O626        O  0.48793762  0.21736907  0.40256166    -0.73300
O627        O  0.32706799  0.02031696  0.42351649    -0.52600
O628        O  0.46726280  0.08334240  0.42194871    -0.97200
O629        O  0.54669156  0.10997206  0.39073138    -0.54500
O630        O  0.52018115  0.17191396  0.40666241    -0.73800
C631        C  0.52038570  0.21076514  0.40723603     0.98500
O632        O  0.38393138  0.22167751  0.39002307    -0.62600
O633        O  0.44978968  0.13521905  0.33336233    -0.57400
O634        O  0.46059938  0.23808048  0.37509144    -0.94100
O635        O  0.49112040  0.21876237  0.35675445    -0.92600
O636        O  0.33849480  0.12493645  0.33878781    -0.92900
O637        O  0.30064383  0.14153305  0.36076367    -0.91700
C638        C  0.48504208  0.24859731  0.36402050     1.17400
H639        H  0.38512630  0.06005611  0.34432443     0.33300
H640        H  0.31737597  0.11807071  0.38786657     0.44200
H641        H  0.50828978  0.18243511  0.38206780     0.37700
H642        H  0.38895839  0.00404208  0.39903131     0.34200
H643        H  0.23132942  0.04588228  0.35464244     0.26000
H644        H  0.29344332  0.99830475  0.42507982     0.31900
H645        H  0.43478586  0.05875431  0.42395631     0.37800
H646        H  0.35463194  0.11307577  0.33281221     0.32300
H647        H  0.45313928  0.16634083  0.33195584     0.31100
H648        H  0.55003823  0.18621055  0.34343067     0.32800
H649        H  0.56555903  0.12290995  0.39926260     0.31800
H650        H  0.32939530  0.17240992  0.36137171     0.35800
H651        H  0.38130687  0.22901016  0.38022270     0.28500
H652        H  0.34410530  0.91126813  0.36158326     0.32700
H653        H  0.46376835  0.00620559  0.39554813     0.35600
H654        H  0.47722823  0.13701250  0.32865391     0.28200
H655        H  0.35114453  0.20126755  0.39295104     0.41100
H656        H  0.23364988  0.99635949  0.39874591     0.31100
H657        H  0.23415473  0.01351922  0.36596095     0.38800
H658        H  0.55872351  0.13644000  0.38416306     0.30600
H659        H  0.34191456  0.00076739  0.42349481     0.30700
H660        H  0.38589759  0.92540148  0.37195334     0.30900
Zr661      Zr  0.35192304  0.98125702  0.64980562     2.17500
O662        O  0.42351041  0.05501467  0.65442238    -0.51400
O663        O  0.33506055  0.01210669  0.67086992    -0.74600
O664        O  0.36490897  0.04514870  0.63443241    -0.81400
O665        O  0.40285902  0.91620529  0.66928362    -0.83200
O666        O  0.31088129  0.01513109  0.61727108    -0.78800
O667        O  0.42125279  0.98495011  0.65890495    -0.90400
O668        O  0.25930440  0.96562627  0.67694715    -0.76400
O669        O  0.27371418  0.96183993  0.64493906    -0.85900
O670        O  0.30591732  0.92115870  0.66604856    -0.85600
O671        O  0.33981232  0.95467903  0.62594279    -0.72300
O672        O  0.36691651  0.91847386  0.64555766    -0.84500
Zr673      Zr  0.22699264  0.81170295  0.63341026     2.26400
Zr674      Zr  0.25994737  0.93290591  0.62154451     2.06300
Zr675      Zr  0.32104850  0.85856719  0.66195365     2.10000
Zr676      Zr  0.22734198  0.90094466  0.66088501     1.78800
O677        O  0.36395653  0.81666748  0.66089032    -0.93300
O678        O  0.17788747  0.93575541  0.65890069    -0.41100
O679        O  0.24218603  0.83850166  0.65695694    -0.77700
O680        O  0.20972427  0.87303516  0.63730538    -0.96400
O681        O  0.27446920  0.87046575  0.61730922    -0.89700
O682        O  0.30518401  0.83021458  0.63859168    -0.92500
C683        C  0.29995733  0.00096022  0.67889795     1.01200
C684        C  0.43195048  0.95937428  0.66614600     1.14200
C685        C  0.34616358  0.04889578  0.62324045     1.04900
O686        O  0.19796518  0.95059189  0.62575628    -0.94700
O687        O  0.21113432  0.87694058  0.60394945    -0.90400
O688        O  0.18549397  0.80349499  0.61174247    -0.83600
C689        C  0.18722352  0.83244430  0.60258794     1.11600
O690        O  0.42902507  0.94868883  0.61442570    -0.96700
Zr691      Zr  0.35182744  0.88953652  0.62228620     1.88900
O692        O  0.24780843  0.76552926  0.61902213    -0.73300
O693        O  0.25502566  0.95517700  0.59771779    -0.52600
O694        O  0.35779703  0.90558151  0.59747377    -0.97200
O695        O  0.41435189  0.87356248  0.62766339    -0.54500
O696        O  0.32147915  0.81329538  0.61127148    -0.73800
C697        C  0.28379131  0.77344857  0.61198039     0.98500
O698        O  0.14469180  0.75344157  0.63601623    -0.62600
O699        O  0.31933885  0.85554795  0.68724522    -0.57400
O700        O  0.20707258  0.74886285  0.64934755    -0.94100
O701        O  0.25907973  0.77641697  0.66730455    -0.92600
O702        O  0.20973968  0.86641418  0.68396268    -0.92900
O703        O  0.14521523  0.84302209  0.66382852    -0.91700
C704        C  0.22179002  0.74419856  0.66118120     1.17400
H705        H  0.31426309  0.93085389  0.67557143     0.33300
H706        H  0.17740043  0.86236147  0.63516603     0.44200
H707        H  0.30944022  0.80350394  0.63795944     0.37700
H708        H  0.36102923  0.97886079  0.61972996     0.34200
H709        H  0.16942855  0.93847879  0.66858957     0.26000
H710        H  0.24938446  0.98177821  0.59836635     0.31900
H711        H  0.34385624  0.92569739  0.59622971     0.37800
H712        H  0.23788775  0.86510619  0.68668096     0.32300
H713        H  0.33769971  0.84043334  0.68965255     0.31100
H714        H  0.34649999  0.78927600  0.66699390     0.32800
H715        H  0.40309871  0.84141866  0.62429540     0.31800
H716        H  0.14332423  0.81289771  0.66164800     0.35800
H717        H  0.12722957  0.76856820  0.63268387     0.28500
H718        H  0.41386446  0.07840223  0.65625724     0.32700
H719        H  0.43689747  0.97641637  0.62020921     0.35600
H720        H  0.33909099  0.88828901  0.69032053     0.28200
H721        H  0.13872674  0.72915273  0.62900912     0.41100
H722        H  0.21306738  0.98472730  0.62438129     0.31100
H723        H  0.19915477  0.96832779  0.65596521     0.38800
H724        H  0.41397183  0.87101986  0.63790791     0.30600
H725        H  0.28686648  0.96835525  0.59383497     0.30700
H726        H  0.44114966  0.06475925  0.64558013     0.30900
Zr727      Zr  0.36853451  0.35813303  0.53562551     2.17500
O728        O  0.44649935  0.36751095  0.53404170    -0.51400
O729        O  0.34778045  0.29578885  0.51841713    -0.74600
O730        O  0.38591937  0.31459258  0.55288945    -0.81400
O731        O  0.40190174  0.45218305  0.50797579    -0.83200
O732        O  0.33876269  0.30033346  0.57152791    -0.78800
O733        O  0.42875826  0.41269980  0.52074968    -0.90400
O734        O  0.27009052  0.25888469  0.51461539    -0.76400
O735        O  0.29525607  0.30181589  0.54474425    -0.85900
O736        O  0.31366252  0.35600571  0.51901993    -0.85600
O737        O  0.36512567  0.38961743  0.55785546    -0.72300
O738        O  0.37885869  0.43544373  0.53443672    -0.84500
Zr739      Zr  0.24218812  0.40288303  0.54947157     2.26400
Zr740      Zr  0.29007952  0.33341278  0.56666513     2.06300
Zr741      Zr  0.32360874  0.43298226  0.51787868     2.10000
Zr742      Zr  0.24001512  0.29925935  0.52844778     1.78800
O743        O  0.36428772  0.51534176  0.51170538    -0.93300
O744        O  0.20001726  0.22071029  0.53804379    -0.41100
O745        O  0.24937577  0.37550604  0.52703714    -0.77700
O746        O  0.23115310  0.32594793  0.55083469    -0.96400
O747        O  0.29883243  0.40916590  0.56563819    -0.89700
O748        O  0.31540772  0.46083938  0.54004543    -0.92500
C749        C  0.31069725  0.26474661  0.51216393     1.01200
C750        C  0.43320810  0.44082770  0.51105320     1.14200
C751        C  0.37086530  0.29746055  0.56499906     1.04900
O752        O  0.23449644  0.25268292  0.57249377    -0.94700
O753        O  0.23418541  0.33581566  0.58228443    -0.90400
O754        O  0.20628167  0.37891954  0.57235682    -0.83600
C755        C  0.20873189  0.35490641  0.58243579     1.11600
O756        O  0.45304804  0.49270563  0.56196900    -0.96700
Zr757      Zr  0.37166581  0.46537226  0.55631760     1.88900
O758        O  0.26298706  0.47644474  0.56019536    -0.73300
O759        O  0.32133082  0.35370757  0.59018865    -0.52600
O760        O  0.38596034  0.47606978  0.58120843    -0.97200
O761        O  0.42554795  0.53967077  0.54547776    -0.54500
O762        O  0.34082107  0.51441697  0.56446720    -0.73800
C763        C  0.30055069  0.51140010  0.56472297     0.98500
O764        O  0.15815587  0.37200815  0.54834513    -0.62600
O765        O  0.30542626  0.41198996  0.49350765    -0.57400
O766        O  0.21261644  0.43295146  0.53212936    -0.94100
O767        O  0.25839523  0.44976876  0.51285023    -0.92600
O768        O  0.20468639  0.28823024  0.50558186    -0.92900
O769        O  0.15637293  0.27025166  0.52810968    -0.91700
C770        C  0.22270918  0.44669250  0.51955977     1.17400
H771        H  0.31875832  0.34797242  0.50979228     0.33300
H772        H  0.20061506  0.30467476  0.55453845     0.44200
H773        H  0.31675191  0.49040903  0.53881771     0.37700
H774        H  0.38948708  0.39178253  0.56386134     0.34200
H775        H  0.18214325  0.20043560  0.53014488     0.26000
H776        H  0.30803809  0.32358217  0.59515729     0.31900
H777        H  0.38880370  0.44902686  0.58417471     0.37800
H778        H  0.23096303  0.30828738  0.49935738     0.32300
H779        H  0.27099776  0.39248354  0.49322442     0.31100
H780        H  0.34589743  0.52813425  0.51600986     0.32800
H781        H  0.40538683  0.54837249  0.54021497     0.31800
H782        H  0.15366970  0.29869861  0.52815922     0.35800
H783        H  0.14386461  0.34013749  0.55223799     0.28500
H784        H  0.44206568  0.33577958  0.53303769     0.32700
H785        H  0.46092673  0.47205936  0.55659529     0.35600
H786        H  0.31217363  0.44143931  0.48891916     0.28200
H787        H  0.15152081  0.39011950  0.55525361     0.41100
H788        H  0.24827421  0.23448481  0.56868658     0.31100
H789        H  0.22492107  0.21311043  0.53978797     0.38800
H790        H  0.44178951  0.53187055  0.53822641     0.30600
H791        H  0.35506368  0.36456940  0.58938802     0.30700
H792        H  0.46128800  0.37879934  0.54325027     0.30900
C793        C  0.42408870  0.16042461  0.60328058    -0.22600
C794        C  0.39179685  0.17490622  0.60040769     0.09400
C795        C  0.34646828  0.15026886  0.60611948     0.09800
C796        C  0.33382681  0.11061020  0.61412943    -0.17500
C797        C  0.36525662  0.09485379  0.61662349    -0.27900
C798        C  0.41137069  0.12043834  0.61134763     0.18100
C799        C  0.40327856  0.21290077  0.59038235     0.12100
C800        C  0.31072578  0.16484111  0.60337720    -0.12200
H801        H  0.29856517  0.09081907  0.61815800     0.12400
C802        C  0.44710500  0.10542352  0.61329360    -0.23100
H803        H  0.45874391  0.17937635  0.59879848     0.08000
C804        C  0.41389987  0.25751901  0.59497087     0.04400
C805        C  0.40750736  0.28679615  0.58584604    -0.20300
C806        C  0.39093005  0.27235227  0.57225528    -0.12600
C807        C  0.38552411  0.22972112  0.56722391     0.13100
C808        C  0.39227077  0.20071731  0.57637877    -0.23000
C809        C  0.42938200  0.27294882  0.60969648    -0.06100
H810        H  0.41234187  0.31978218  0.58962530     0.14600
C811        C  0.36868988  0.21149236  0.55276693    -0.16300
H812        H  0.38442812  0.16637069  0.57291016     0.08900
H813        H  0.47780876  0.13314583  0.61890879     0.06800
H814        H  0.45865132  0.09991799  0.60298374     0.08000
H815        H  0.43378054  0.07258343  0.61920005     0.07000
H816        H  0.30459705  0.16465232  0.59204006     0.01900
H817        H  0.32320997  0.20040146  0.60754070     0.02400
H818        H  0.27675573  0.14097447  0.60839887     0.05900
H819        H  0.43585940  0.30876525  0.61163541     0.04900
H820        H  0.46225481  0.27269693  0.61172986    -0.00900
H821        H  0.40231979  0.24905662  0.61712114     0.00600
H822        H  0.39530989  0.20614583  0.54737354     0.04300
H823        H  0.36197275  0.23505870  0.54631629     0.06200
H824        H  0.33566396  0.17752184  0.55339088     0.07100
C825        C  0.26340796  0.65293882  0.60287218    -0.22600
C826        C  0.28729091  0.66209821  0.59023919     0.09400
C827        C  0.30717199  0.70688487  0.58428416     0.09800
C828        C  0.30492315  0.74239938  0.59154698    -0.17500
C829        C  0.28225560  0.73380805  0.60444093    -0.27900
C830        C  0.26037921  0.68809009  0.61007676     0.18100
C831        C  0.29167848  0.62425259  0.58361298     0.12100
C832        C  0.33126060  0.71738752  0.57038730    -0.12200
H833        H  0.32095041  0.77710694  0.58713115     0.12400
C834        C  0.23525762  0.67610094  0.62386157    -0.23100
H835        H  0.24757935  0.61809151  0.60718681     0.08000
C836        C  0.32186357  0.60966471  0.58902992     0.04400
C837        C  0.32473174  0.57349005  0.58242131    -0.20300
C838        C  0.29700286  0.55052424  0.57081228    -0.12600
C839        C  0.26609809  0.56482491  0.56552724     0.13100
C840        C  0.26426293  0.60186079  0.57196512    -0.23000
C841        C  0.35092415  0.63208139  0.60180245    -0.06100
H842        H  0.34789683  0.56223772  0.58657532     0.14600
C843        C  0.23544900  0.54204063  0.55302718    -0.16300
H844        H  0.24080326  0.61308125  0.56803321     0.08900
H845        H  0.25900633  0.69911758  0.63213772     0.06800
H846        H  0.22302545  0.63944008  0.62690998     0.08000
H847        H  0.20398045  0.68010024  0.62323525     0.07000
H848        H  0.30606773  0.69546915  0.56223412     0.01900
H849        H  0.36048283  0.71005452  0.57073874     0.02400
H850        H  0.34563137  0.75446881  0.56740822     0.05900
H851        H  0.37332493  0.61704196  0.60443010     0.04900
H852        H  0.32789323  0.62650002  0.61084183    -0.00900
H853        H  0.37385163  0.67007042  0.60006385     0.00600
H854        H  0.20880742  0.50546815  0.55545336     0.04300
H855        H  0.25704113  0.54280777  0.54409238     0.06200
H856        H  0.21639998  0.56018451  0.54984231     0.07100
C857        C  0.34658921  0.21537004  0.45019173    -0.22600
C858        C  0.33717610  0.18534405  0.46150680     0.09400
C859        C  0.33434757  0.14191593  0.45934619     0.09800
C860        C  0.34118065  0.12958540  0.44592548    -0.17500
C861        C  0.35117805  0.15973567  0.43451841    -0.27900
C862        C  0.35387047  0.20338154  0.43675371     0.18100
C863        C  0.33080494  0.20063749  0.47550178     0.12100
C864        C  0.32487625  0.10891685  0.47124269    -0.12200
H865        H  0.33942566  0.09632895  0.44439044     0.12400
C866        C  0.36295139  0.23703313  0.42506108    -0.23100
H867        H  0.34838874  0.24856794  0.45193546     0.08000
C868        C  0.36913712  0.23364805  0.48333960     0.04400
C869        C  0.36131959  0.25084408  0.49580346    -0.20300
C870        C  0.31595759  0.23717320  0.50054786    -0.12600
C871        C  0.27748479  0.20108062  0.49310550     0.13100
C872        C  0.28562597  0.18354789  0.48070853    -0.23000
C873        C  0.41839225  0.25125441  0.47842746    -0.06100
H874        H  0.39110705  0.27655514  0.50158670     0.14600
C875        C  0.22763634  0.18050298  0.49792553    -0.16300
H876        H  0.25640397  0.15736210  0.47475594     0.08900
H877        H  0.39833963  0.24978218  0.42071080     0.06800
H878        H  0.36124472  0.26805179  0.42862504     0.08000
H879        H  0.33624494  0.21957248  0.41683261     0.07000
H880        H  0.29035113  0.09855362  0.47589475     0.01900
H881        H  0.35236874  0.12622788  0.47927874     0.02400
H882        H  0.32459861  0.07674560  0.46781590     0.05900
H883        H  0.44446136  0.27650854  0.48586564     0.04900
H884        H  0.42395344  0.26907797  0.46827395    -0.00900
H885        H  0.42471596  0.22153118  0.47725243     0.00600
H886        H  0.20322978  0.15030674  0.49142454     0.04300
H887        H  0.21631053  0.20676230  0.49719207     0.06200
H888        H  0.22430357  0.16792603  0.50877789     0.07100
C889        C  0.07628632  0.78745054  0.54259760    -0.22600
C890        C  0.09611648  0.76421437  0.54938089     0.09400
C891        C  0.09406292  0.72472850  0.54311344     0.09800
C892        C  0.07101931  0.70858752  0.53033564    -0.17500
C893        C  0.04992099  0.73101212  0.52360376    -0.27900
C894        C  0.05344199  0.77165362  0.52976754     0.18100
C895        C  0.11935244  0.78224067  0.56298446     0.12100
C896        C  0.11650424  0.69985797  0.54986270    -0.12200
H897        H  0.06860417  0.67755354  0.52574507     0.12400
C898        C  0.03448545  0.79947636  0.52282221    -0.23100
H899        H  0.07860126  0.81811466  0.54743761     0.08000
C900        C  0.16392129  0.82236552  0.56388635     0.04400
C901        C  0.18491437  0.83766548  0.57694963    -0.20300
C902        C  0.16228488  0.81410112  0.58920444    -0.12600
C903        C  0.11695874  0.77456511  0.58829222     0.13100
C904        C  0.09619160  0.75902479  0.57516829    -0.23000
C905        C  0.18948170  0.84882351  0.55105388    -0.06100
H906        H  0.21952132  0.86808120  0.57758205     0.14600
C907        C  0.08957817  0.74970946  0.60106771    -0.16300
H908        H  0.06158172  0.72868987  0.57437763     0.08900
H909        H  0.04444055  0.83235032  0.52851771     0.06800
H910        H  0.99581553  0.77911219  0.52250514     0.08000
H911        H  0.04865446  0.80892230  0.51211985     0.07000
H912        H  0.10004233  0.68580351  0.56009694     0.01900
H913        H  0.15434454  0.72455671  0.55136597     0.02400
H914        H  0.11266467  0.67029174  0.54341492     0.05900
H915        H  0.22452442  0.87868084  0.55357653     0.04900
H916        H  0.16930293  0.86282677  0.54578427    -0.00900
H917        H  0.19407795  0.82528089  0.54382325     0.00600
H918        H  0.05353541  0.72195193  0.59844726     0.04300
H919        H  0.08708857  0.77492373  0.60812950     0.06200
H920        H  0.10681212  0.73292750  0.60649043     0.07100
C921        C  0.18586278  0.81569803  0.44297894    -0.22600
C922        C  0.19753221  0.79223433  0.43305473     0.09400
C923        C  0.17816427  0.74357714  0.43390764     0.09800
C924        C  0.14378707  0.71867461  0.44394835    -0.17500
C925        C  0.12818856  0.74175657  0.45280226    -0.27900
C926        C  0.15080682  0.79087866  0.45275903     0.18100
C927        C  0.22383589  0.81880672  0.42074870     0.12100
C928        C  0.19163767  0.71798907  0.42366446    -0.12200
H929        H  0.12589278  0.68088722  0.44395737     0.12400
C930        C  0.13605444  0.81684235  0.46250416    -0.23100
H931        H  0.20142375  0.85324748  0.44229168     0.08000
C932        C  0.20095123  0.82889889  0.41010194     0.04400
C933        C  0.22763364  0.86315646  0.40030707    -0.20300
C934        C  0.27641712  0.88690626  0.40090200    -0.12600
C935        C  0.29915267  0.87295540  0.41058497     0.13100
C936        C  0.27242001  0.83912918  0.42052985    -0.23000
C937        C  0.14845659  0.80528927  0.40953697    -0.06100
H938        H  0.21047766  0.87407349  0.39285618     0.14600
C939        C  0.35147810  0.89510726  0.41127018    -0.16300
H940        H  0.28966784  0.83057835  0.42860881     0.08900
H941        H  0.09944789  0.80755205  0.46041013     0.06800
H942        H  0.15826982  0.85520148  0.46131664     0.08000
H943        H  0.13896051  0.80773509  0.47340468     0.07000
H944        H  0.22967699  0.73108334  0.42443648     0.01900
H945        H  0.18326534  0.72376509  0.41294815     0.02400
H946        H  0.17279018  0.67987014  0.42567044     0.05900
H947        H  0.13637521  0.81674530  0.40039270     0.04900
H948        H  0.13492630  0.81357234  0.41902382    -0.00900
H949        H  0.13341277  0.76695305  0.40879935     0.00600
H950        H  0.36423421  0.91247166  0.42149047     0.04300
H951        H  0.36960884  0.92126519  0.40300205     0.06200
H952        H  0.36117180  0.86769731  0.41005664     0.07100
C953        C  0.68869250  0.41815217  0.42437521    -0.22600
C954        C  0.68253948  0.37448636  0.42791300     0.09400
C955        C  0.71737218  0.37147800  0.43546306     0.09800
C956        C  0.75786587  0.41258324  0.43929487    -0.17500
C957        C  0.76402514  0.45657414  0.43592330    -0.27900
C958        C  0.72891748  0.45937547  0.42830516     0.18100
C959        C  0.64036428  0.33235232  0.42296439     0.12100
C960        C  0.71120343  0.32505556  0.43984807    -0.12200
H961        H  0.78413642  0.41035135  0.44542260     0.12400
C962        C  0.73269224  0.50468729  0.42381032    -0.23100
H963        H  0.66200988  0.42003463  0.41835930     0.08000
C964        C  0.59585013  0.31798002  0.42862620     0.04400
C965        C  0.55703338  0.27778736  0.42336452    -0.20300
C966        C  0.56214973  0.25166282  0.41275811    -0.12600
C967        C  0.60657923  0.26707970  0.40679872     0.13100
C968        C  0.64520638  0.30717403  0.41205236    -0.23000
C969        C  0.58943729  0.34450571  0.44032731    -0.06100
H970        H  0.52262519  0.26648446  0.42758530     0.14600
C971        C  0.61325717  0.24273542  0.39452410    -0.16300
H972        H  0.67942602  0.31933661  0.40755264     0.08900
H973        H  0.70475998  0.50868772  0.42887950     0.06800
H974        H  0.72818915  0.50428708  0.41237328     0.08000
H975        H  0.76672910  0.53565138  0.42628550     0.07000
H976        H  0.70851381  0.30391120  0.43057765     0.01900
H977        H  0.67897757  0.30594888  0.44616875     0.02400
H978        H  0.74106625  0.32923244  0.44619279     0.05900
H979        H  0.55241332  0.32780421  0.44368575     0.04900
H980        H  0.60040519  0.38056687  0.43697512    -0.00900
H981        H  0.61077305  0.34580087  0.44938690     0.00600
H982        H  0.64997395  0.26102891  0.39082390     0.04300
H983        H  0.59083781  0.24146800  0.38577643     0.06200
H984        H  0.60430969  0.20697193  0.39749391     0.07100
C985        C  0.15699760  0.50880619  0.50784423    -0.22600
C986        C  0.11046349  0.47159584  0.50815405     0.09400
C987        C  0.10280775  0.42601422  0.51015042     0.09800
C988        C  0.14107822  0.41910601  0.51237988    -0.17500
C989        C  0.18751152  0.45640975  0.51283564    -0.27900
C990        C  0.19533501  0.50198405  0.51041662     0.18100
C991        C  0.07042474  0.48115053  0.50697280     0.12100
C992        C  0.05404501  0.38465216  0.51071133    -0.12200
H993        H  0.13446359  0.38424435  0.51460412     0.12400
C994        C  0.24323060  0.54441967  0.51122572    -0.23100
H995        H  0.16342432  0.54387257  0.50614854     0.08000
C996        C  0.06101266  0.50564401  0.51739652     0.04400
C997        C  0.02537894  0.51677042  0.51535235    -0.20300
C998        C  0.99741528  0.50285248  0.50333663    -0.12600
C999        C  0.00459781  0.47532860  0.49343104     0.13100
C1000       C  0.04101501  0.46532345  0.49527875    -0.23000
C1001       C  0.08866249  0.52033506  0.53069881    -0.06100
H1002       H  0.02110275  0.53885285  0.52283237     0.14600
C1003       C  0.97575005  0.45784592  0.48040879    -0.16300
H1004       H  0.04734391  0.44611861  0.48727055     0.08900
H1005       H  0.24355920  0.56858128  0.51929756     0.06800
H1006       H  0.25222666  0.56257762  0.50105334     0.08000
H1007       H  0.27059579  0.53580365  0.51386651     0.07000
H1008       H  0.03650214  0.37986274  0.50054239     0.01900
H1009       H  0.03364735  0.39014925  0.51890485     0.02400
H1010       H  0.05408574  0.35190592  0.51310915     0.05900
H1011       H  0.07591279  0.53775754  0.53789969     0.04900
H1012       H  0.12596113  0.54517014  0.52849819    -0.00900
H1013       H  0.08545810  0.48918304  0.53603282     0.00600
H1014       H  0.99851833  0.47286164  0.47116912     0.04300
H1015       H  0.94787234  0.46698486  0.47999985     0.06200
H1016       H  0.95875773  0.41925083  0.47995287     0.07100
C1017       C  0.53481685  0.43546751  0.49563647    -0.22600
C1018       C  0.57171485  0.48105569  0.49756996     0.09400
C1019       C  0.56078585  0.51638378  0.50070940     0.09800
C1020       C  0.51408458  0.50399193  0.50396286    -0.17500
C1021       C  0.47750912  0.45741040  0.50303276    -0.27900
C1022       C  0.48825194  0.42358666  0.49795197     0.18100
C1023       C  0.62075950  0.49055759  0.49540304     0.12100
C1024       C  0.59793177  0.56707434  0.50004593    -0.12200
H1025       H  0.50651819  0.53037230  0.50769369     0.12400
C1026       C  0.45115302  0.37364323  0.49542565    -0.23100
H1027       H  0.54243109  0.40855620  0.49245406     0.08000
C1028       C  0.65277726  0.50046306  0.50646987     0.04400
C1029       C  0.69876914  0.50992426  0.50360720    -0.20300
C1030       C  0.71280247  0.50711252  0.49002121    -0.12600
C1031       C  0.67871664  0.49199273  0.47925627     0.13100
C1032       C  0.63406074  0.48525259  0.48202048    -0.23000
C1033       C  0.63805144  0.49936270  0.52133765    -0.06100
H1034       H  0.72411190  0.52080203  0.51193421     0.14600
C1035       C  0.68799622  0.48208488  0.46463653    -0.16300
H1036       H  0.60902672  0.47513261  0.47361377     0.08900
H1037       H  0.45687901  0.35081989  0.50259622     0.06800
H1038       H  0.45352739  0.36380260  0.48454989     0.08000
H1039       H  0.41526653  0.36743078  0.49694876     0.07000
H1040       H  0.61255747  0.57542040  0.48937043     0.01900
H1041       H  0.62664229  0.57506063  0.50740323     0.02400
H1042       H  0.58360127  0.59019298  0.50254225     0.05900
H1043       H  0.66683535  0.50679104  0.52867422     0.04900
H1044       H  0.60828709  0.46422115  0.52375989    -0.00900
H1045       H  0.62717237  0.52551739  0.52317305     0.00600
H1046       H  0.66049333  0.44651299  0.46149496     0.04300
H1047       H  0.72167782  0.48286194  0.46361821     0.06200
H1048       H  0.68742088  0.50776330  0.45736495     0.07100
C1049       C  0.05550843  0.29158752  0.63294110    -0.22600
C1050       C  0.10338623  0.32347584  0.63339253     0.09400
C1051       C  0.12445617  0.34422458  0.64615858     0.09800
C1052       C  0.09683468  0.33306765  0.65822041    -0.17500
C1053       C  0.04878902  0.30017326  0.65793000    -0.27900
C1054       C  0.02801202  0.27900835  0.64500121     0.18100
C1055       C  0.13094668  0.33211241  0.62045135     0.12100
C1056       C  0.17627999  0.37708680  0.64707975    -0.12200
H1057       H  0.11309947  0.34936134  0.66799240     0.12400
C1058       C  0.97692770  0.24332190  0.64362251    -0.23100
H1059       H  0.03980317  0.27560788  0.62307470     0.08000
C1060       C  0.14297103  0.29935353  0.61560982     0.04400
C1061       C  0.16688600  0.30729563  0.60299933    -0.20300
C1062       C  0.18058995  0.34802377  0.59520418    -0.12600
C1063       C  0.16979935  0.38175059  0.60033434     0.13100
C1064       C  0.14445342  0.37291641  0.61280635    -0.23000
C1065       C  0.13176607  0.25659031  0.62397264    -0.06100
H1066       H  0.17540622  0.28154470  0.59928863     0.14600
C1067       C  0.18648475  0.42787531  0.59316002    -0.16300
H1068       H  0.13549539  0.39814011  0.61671533     0.08900
H1069       H  0.96667818  0.23287824  0.63264175     0.06800
H1070       H  0.95530609  0.25772524  0.64766336     0.08000
H1071       H  0.96930183  0.21131690  0.64938223     0.07000
H1072       H  0.18641935  0.40775689  0.64030475     0.01900
H1073       H  0.19506996  0.35889445  0.64365666     0.02400
H1074       H  0.18740300  0.38978336  0.65785754     0.05900
H1075       H  0.14460282  0.23509895  0.61883473     0.04900
H1076       H  0.09347306  0.23455885  0.62534123    -0.00900
H1077       H  0.14865767  0.26726668  0.63432683     0.00600
H1078       H  0.17003188  0.42230948  0.58277334     0.04300
H1079       H  0.22506057  0.44638005  0.59205220     0.06200
H1080       H  0.17735114  0.45090073  0.59913940     0.07100
C1081       C  0.15847016  0.61541287  0.67127020    -0.22600
C1082       C  0.11362840  0.60817708  0.67432929     0.09400
C1083       C  0.10771497  0.64758306  0.67500735     0.09800
C1084       C  0.14556166  0.69220327  0.67198308    -0.17500
C1085       C  0.18966160  0.69920597  0.66820778    -0.27900
C1086       C  0.19628881  0.66019224  0.66804786     0.18100
C1087       C  0.07335459  0.55941388  0.67664133     0.12100
C1088       C  0.06085217  0.64257171  0.67819861    -0.12200
H1089       H  0.14000053  0.72179297  0.67181598     0.12400
C1090       C  0.24217155  0.66433708  0.66403996    -0.23100
H1091       H  0.16374787  0.58567241  0.67101764     0.08000
C1092       C  0.05456654  0.52564900  0.66586676     0.04400
C1093       C  0.01805369  0.47976551  0.66878835    -0.20300
C1094       C  0.99926032  0.46648968  0.68222636    -0.12600
C1095       C  0.01674259  0.50113224  0.69279403     0.13100
C1096       C  0.05333095  0.54660689  0.68990695    -0.23000
C1097       C  0.07344777  0.53775343  0.65129764    -0.06100
H1098       H  0.00623063  0.45336187  0.66073466     0.14600
C1099       C  0.99864502  0.49067095  0.70747708    -0.16300
H1100       H  0.06727801  0.57200880  0.69824927     0.08900
H1101       H  0.23726061  0.64240221  0.65475718     0.06800
H1102       H  0.25513743  0.65197786  0.67274315     0.08000
H1103       H  0.26931076  0.70068955  0.66161582     0.07000
H1104       H  0.04970439  0.62875642  0.68884716     0.01900
H1105       H  0.03457336  0.61848378  0.67059960     0.02400
H1106       H  0.06187096  0.67654934  0.67763275     0.05900
H1107       H  0.05425089  0.50793856  0.64406753     0.04900
H1108       H  0.11071737  0.54740552  0.65110525    -0.00900
H1109       H  0.07009099  0.56749407  0.64744103     0.00600
H1110       H  0.02724782  0.49605300  0.71461791     0.04300
H1111       H  0.96933575  0.45449543  0.70874895     0.06200
H1112       H  0.98580731  0.51462012  0.71052478     0.07100
C1113       C  0.63097667  0.14034036  0.68328408    -0.22600
C1114       C  0.62266059  0.09508568  0.68035041     0.09400
C1115       C  0.66133861  0.08810151  0.67949799     0.09800
C1116       C  0.70673245  0.12582986  0.68168247    -0.17500
C1117       C  0.71524551  0.17083371  0.68499843    -0.27900
C1118       C  0.67660451  0.17808202  0.68575022     0.18100
C1119       C  0.57392019  0.05592050  0.67743777     0.12100
C1120       C  0.65465268  0.04021583  0.67697269    -0.12200
H1121       H  0.73589761  0.11957456  0.68155083     0.12400
C1122       C  0.68216325  0.22469967  0.68951636    -0.23100
H1123       H  0.60160249  0.14618614  0.68382643     0.08000
C1124       C  0.53940599  0.03421243  0.68788874     0.04400
C1125       C  0.49391562  0.99826850  0.68426635    -0.20300
C1126       C  0.48198191  0.98337194  0.67042472    -0.12600
C1127       C  0.51741103  0.00365161  0.66016085     0.13100
C1128       C  0.56237171  0.03954486  0.66376172    -0.23000
C1129       C  0.55023979  0.04950699  0.70280649    -0.06100
H1130       H  0.46684767  0.98387858  0.69212248     0.14600
C1131       C  0.50849047  0.98909563  0.64511961    -0.16300
H1132       H  0.58862356  0.05553888  0.65571175     0.08900
H1133       H  0.66248562  0.22141515  0.69919245     0.06800
H1134       H  0.66800506  0.23661307  0.68101954     0.08000
H1135       H  0.71913035  0.25184096  0.69116599     0.07000
H1136       H  0.63883411  0.02713826  0.66660952     0.01900
H1137       H  0.63145639  0.01586154  0.68509602     0.02400
H1138       H  0.68826862  0.04039143  0.67730368     0.05900
H1139       H  0.51982417  0.02850477  0.70967514     0.04900
H1140       H  0.55976296  0.08661099  0.70379655    -0.00900
H1141       H  0.57978056  0.04540370  0.70645010     0.00600
H1142       H  0.51306942  0.01887730  0.63868657     0.04300
H1143       H  0.47298471  0.95915654  0.64331391     0.06200
H1144       H  0.53378250  0.97846466  0.64162096     0.07100
C1145       C  0.34314878  0.09727572  0.70639772    -0.22600
C1146       C  0.32375735  0.07061735  0.71844516     0.09400
C1147       C  0.29566539  0.02175622  0.71730729     0.09800
C1148       C  0.28782553  0.00070934  0.70418529    -0.17500
C1149       C  0.30737255  0.02712336  0.69207197    -0.27900
C1150       C  0.33509091  0.07625482  0.69319710     0.18100
C1151       C  0.33141070  0.09447684  0.73209649     0.12100
C1152       C  0.27476444  0.99161931  0.72997041    -0.12200
H1153       H  0.26704577  0.96304148  0.70342494     0.12400
C1154       C  0.35519462  0.10776294  0.68077388    -0.23100
H1155       H  0.36398100  0.13490346  0.70727650     0.08000
C1156       C  0.37449813  0.11393721  0.73916103     0.04400
C1157       C  0.37931895  0.13538142  0.75216302    -0.20300
C1158       C  0.34245397  0.13906439  0.75812105    -0.12600
C1159       C  0.29899350  0.11885783  0.75102273     0.13100
C1160       C  0.29419088  0.09681540  0.73816397    -0.23000
C1161       C  0.41546191  0.11239627  0.73294148    -0.06100
H1162       H  0.41269232  0.15094440  0.75744624     0.14600
C1163       C  0.25706637  0.11950176  0.75691685    -0.16300
H1164       H  0.26118591  0.08162676  0.73267785     0.08900
H1165       H  0.39387587  0.12567679  0.68116400     0.06800
H1166       H  0.34424538  0.13442554  0.68097213     0.08000
H1167       H  0.34321322  0.08913237  0.67074003     0.07000
H1168       H  0.25005514  0.00024074  0.73512968     0.01900
H1169       H  0.30290100  0.99748326  0.73737074     0.02400
H1170       H  0.25525789  0.95395514  0.72726768     0.05900
H1171       H  0.44617415  0.12813357  0.73997907     0.04900
H1172       H  0.42584239  0.13216218  0.72304474    -0.00900
H1173       H  0.40590141  0.07567853  0.73089573     0.00600
H1174       H  0.26319337  0.15561137  0.75709890     0.04300
H1175       H  0.24975614  0.10480644  0.76757684     0.06200
H1176       H  0.22531519  0.09838549  0.75054199     0.07100
C1177       C  0.21090631  0.35497680  0.77427273    -0.22600
C1178       C  0.22767505  0.36926874  0.76073534     0.09400
C1179       C  0.27442843  0.38334266  0.75758218     0.09800
C1180       C  0.30168420  0.37720749  0.76756711    -0.17500
C1181       C  0.28332178  0.35832380  0.78066273    -0.27900
C1182       C  0.23847848  0.34981363  0.78437281     0.18100
C1183       C  0.19358323  0.36190456  0.74970992     0.12100
C1184       C  0.29472241  0.40291482  0.74353491    -0.12200
H1185       H  0.33637856  0.38418297  0.76483131     0.12400
C1186       C  0.21794804  0.33303908  0.79859160    -0.23100
H1187       H  0.17513662  0.34506117  0.77672050     0.08000
C1188       C  0.16996939  0.31875602  0.74266665     0.04400
C1189       C  0.13230688  0.30939908  0.73403550    -0.20300
C1190       C  0.11744267  0.34195296  0.73230684    -0.12600
C1191       C  0.14308203  0.38642055  0.73861938     0.13100
C1192       C  0.18104606  0.39587372  0.74728960    -0.23000
C1193       C  0.18298468  0.28160385  0.74477867    -0.06100
H1194       H  0.11269840  0.27541492  0.72915416     0.14600
C1195       C  0.12893175  0.42279739  0.73695951    -0.16300
H1196       H  0.19966333  0.42898153  0.75269272     0.08900
H1197       H  0.18601098  0.29823988  0.79776028     0.06800
H1198       H  0.20848642  0.35796780  0.80318806     0.08000
H1199       H  0.24255340  0.33034083  0.80580494     0.07000
H1200       H  0.29223059  0.43461436  0.74158975     0.01900
H1201       H  0.27530430  0.37682856  0.73529891     0.02400
H1202       H  0.33204569  0.41276014  0.74286573     0.05900
H1203       H  0.16068164  0.24989269  0.73851310     0.04900
H1204       H  0.17881813  0.27128791  0.75587852    -0.00900
H1205       H  0.21976437  0.29499374  0.74162459     0.00600
H1206       H  0.09262031  0.40898763  0.74069239     0.04300
H1207       H  0.13132666  0.43262279  0.72586465     0.06200
H1208       H  0.15202601  0.45491515  0.74296273     0.07100
C1209       C  0.66803820  0.23254186  0.74785601    -0.22600
C1210       C  0.67527895  0.25986905  0.75966952     0.09400
C1211       C  0.72043980  0.28615099  0.76532224     0.09800
C1212       C  0.75790880  0.28533824  0.75875537    -0.17500
C1213       C  0.75104481  0.25837238  0.74675140    -0.27900
C1214       C  0.70514765  0.23130937  0.74127555     0.18100
C1215       C  0.63475402  0.26086973  0.76569614     0.12100
C1216       C  0.72899218  0.31522897  0.77819606    -0.12200
H1217       H  0.79274860  0.30597574  0.76299994     0.12400
C1218       C  0.69470865  0.20247183  0.72820527    -0.23100
H1219       H  0.63303492  0.21253471  0.74365986     0.08000
C1220       C  0.62008049  0.29111187  0.76050134     0.04400
C1221       C  0.58040446  0.28968349  0.76617283    -0.20300
C1222       C  0.55444109  0.25823356  0.77683892    -0.12600
C1223       C  0.56936867  0.22752515  0.78195509     0.13100
C1224       C  0.60935279  0.22939921  0.77626269    -0.23000
C1225       C  0.64624783  0.32476401  0.74892645    -0.06100
H1226       H  0.56956940  0.31332400  0.76216787     0.14600
C1227       C  0.54459030  0.19340215  0.79358090    -0.16300
H1228       H  0.62095520  0.20607999  0.78003632     0.08900
H1229       H  0.71635071  0.22479142  0.71950618     0.06800
H1230       H  0.65754550  0.18657809  0.72506031     0.08000
H1231       H  0.70175242  0.17344066  0.72988481     0.07000
H1232       H  0.70836994  0.29247951  0.78696126     0.01900
H1233       H  0.71834795  0.34165158  0.77635230     0.02400
H1234       H  0.76638773  0.33377511  0.78123027     0.05900
H1235       H  0.63020972  0.34612725  0.74612410     0.04900
H1236       H  0.64612655  0.30522808  0.73952961    -0.00900
H1237       H  0.68285850  0.34874066  0.75215801     0.00600
H1238       H  0.56255016  0.17389210  0.79645652     0.04300
H1239       H  0.50865218  0.16727462  0.79031889     0.06200
H1240       H  0.54348546  0.21224920  0.80299556     0.07100
C1241       C  0.68808858  0.84415538  0.10721012    -0.22600
C1242       C  0.64425134  0.82335117  0.10083030     0.09400
C1243       C  0.61130389  0.83614975  0.10486830     0.09800
C1244       C  0.62468825  0.87289243  0.11440056    -0.17500
C1245       C  0.67011013  0.89639417  0.11990791    -0.27900
C1246       C  0.70127075  0.88010723  0.11684517     0.18100
C1247       C  0.63532644  0.78891642  0.08982769     0.12100
C1248       C  0.56283052  0.81191115  0.09886706    -0.12200
H1249       H  0.60077805  0.88530009  0.11681630     0.12400
C1250       C  0.74887953  0.90029174  0.12340226    -0.23100
H1251       H  0.71266173  0.83290996  0.10438899     0.08000
C1252       C  0.65023004  0.80336925  0.07605284     0.04400
C1253       C  0.65526499  0.77303588  0.06695203    -0.20300
C1254       C  0.64712277  0.72953881  0.07156519    -0.12600
C1255       C  0.62848992  0.71377290  0.08500105     0.13100
C1256       C  0.62238779  0.74361430  0.09392519    -0.23000
C1257       C  0.66421593  0.85195855  0.07132056    -0.06100
H1258       H  0.66995875  0.78507528  0.05670377     0.14600
C1259       C  0.61726336  0.66679316  0.09055364    -0.16300
H1260       H  0.61114485  0.73285597  0.10453359     0.08900
H1261       H  0.77621889  0.91694706  0.11529537     0.06800
H1262       H  0.75222920  0.87189838  0.12837592     0.08000
H1263       H  0.75513306  0.92637233  0.13158884     0.07000
H1264       H  0.54525215  0.77416480  0.10136870     0.01900
H1265       H  0.56447151  0.81623019  0.08742031     0.02400
H1266       H  0.54140176  0.82620083  0.10316180     0.05900
H1267       H  0.67561561  0.85768808  0.06029360     0.04900
H1268       H  0.69357111  0.87802620  0.07775613    -0.00900
H1269       H  0.63415559  0.85780599  0.07233184     0.00600
H1270       H  0.64005886  0.67151013  0.09958865     0.04300
H1271       H  0.62191656  0.64502662  0.08270962     0.06200
H1272       H  0.58028412  0.64743928  0.09398256     0.07100
C1273       C  0.71444204  0.29691933  0.08870734    -0.22600
C1274       C  0.74499740  0.34109104  0.09415522     0.09400
C1275       C  0.77574477  0.34607445  0.10495405     0.09800
C1276       C  0.77454447  0.30623612  0.11031109    -0.17500
C1277       C  0.74307557  0.26136652  0.10516510    -0.27900
C1278       C  0.71290114  0.25683785  0.09405316     0.18100
C1279       C  0.74349972  0.38156809  0.08847298     0.12100
C1280       C  0.80969688  0.39339523  0.11081103    -0.12200
H1281       H  0.79767440  0.31022979  0.11882034     0.12400
C1282       C  0.67944725  0.21040812  0.08756739    -0.23100
H1283       H  0.69129738  0.29387342  0.08030313     0.08000
C1284       C  0.76681635  0.40305059  0.07607007     0.04400
C1285       C  0.76321471  0.44048784  0.07087045    -0.20300
C1286       C  0.73642959  0.45663611  0.07771469    -0.12600
C1287       C  0.71298786  0.43490159  0.09017658     0.13100
C1288       C  0.71710835  0.39767681  0.09544088    -0.23000
C1289       C  0.79546501  0.38648723  0.06834954    -0.06100
H1290       H  0.78087125  0.45678563  0.06124988     0.14600
C1291       C  0.68456229  0.45122378  0.09813169    -0.16300
H1292       H  0.69937904  0.38069957  0.10498261     0.08900
H1293       H  0.69866852  0.19274614  0.08406967     0.06800
H1294       H  0.66147677  0.21438146  0.07838019     0.08000
H1295       H  0.65198897  0.18817321  0.09513763     0.07000
H1296       H  0.79039578  0.40970333  0.11530691     0.01900
H1297       H  0.83307430  0.41608952  0.10243731     0.02400
H1298       H  0.83173428  0.39114460  0.11911904     0.05900
H1299       H  0.81191429  0.40766214  0.05890615     0.04900
H1300       H  0.77289724  0.34967037  0.06506740    -0.00900
H1301       H  0.82362267  0.38903957  0.07519167     0.00600
H1302       H  0.65392207  0.44535239  0.09189369     0.04300
H1303       H  0.70641541  0.48887604  0.10063982     0.06200
H1304       H  0.67118732  0.43194255  0.10804527     0.07100
C1305       C  0.93014705  0.68057603  0.10889682    -0.22600
C1306       C  0.90783221  0.67986799  0.12135147     0.09400
C1307       C  0.86210123  0.67255885  0.12099992     0.09800
C1308       C  0.83943046  0.66547616  0.10817809    -0.17500
C1309       C  0.86144369  0.66578060  0.09564227    -0.27900
C1310       C  0.90787044  0.67426773  0.09600845     0.18100
C1311       C  0.93317557  0.68718254  0.13465027     0.12100
C1312       C  0.83707321  0.67171072  0.13416661    -0.12200
H1313       H  0.80396790  0.65911896  0.10795250     0.12400
C1314       C  0.93598350  0.67922453  0.08314869    -0.23100
H1315       H  0.96560888  0.68694546  0.10923263     0.08000
C1316       C  0.93642996  0.65075697  0.14107033     0.04400
C1317       C  0.96103947  0.65936103  0.15361014    -0.20300
C1318       C  0.98379731  0.70400424  0.15974371    -0.12600
C1319       C  0.98030815  0.74055838  0.15321557     0.13100
C1320       C  0.95462356  0.73141707  0.14083460    -0.23000
C1321       C  0.91432008  0.60293210  0.13459038    -0.06100
H1322       H  0.96380720  0.63126639  0.15839608     0.14600
C1323       C  0.00288283  0.78911923  0.15920850    -0.16300
H1324       H  0.95179254  0.75912158  0.13579345     0.08900
H1325       H  0.94485987  0.65105978  0.08287074     0.06800
H1326       H  0.96884035  0.71343360  0.08339027     0.08000
H1327       H  0.91789181  0.67821880  0.07340926     0.07000
H1328       H  0.85650220  0.70589865  0.13953151     0.01900
H1329       H  0.83455221  0.64390689  0.14114372     0.02400
H1330       H  0.80117075  0.66477564  0.13205641     0.05900
H1331       H  0.91978063  0.57825708  0.14100879     0.04900
H1332       H  0.92988660  0.60508408  0.12420773    -0.00900
H1333       H  0.87618481  0.58868221  0.13342743     0.00600
H1334       H  0.04142775  0.80555508  0.15880676     0.04300
H1335       H  0.99129430  0.78777065  0.17010669     0.06200
H1336       H  0.99344573  0.81191402  0.15326936     0.07100
C1337       C  0.98076426  0.46776200  0.16379888    -0.22600
C1338       C  0.96342350  0.43569923  0.17484059     0.09400
C1339       C  0.98391588  0.45039901  0.18810165     0.09800
C1340       C  0.01940061  0.49699725  0.19014809    -0.17500
C1341       C  0.03499693  0.52988727  0.17932414    -0.27900
C1342       C  0.01578034  0.51469537  0.16590927     0.18100
C1343       C  0.92323452  0.38734305  0.17244601     0.12100
C1344       C  0.96648638  0.41762829  0.20030899    -0.12200
H1345       H  0.03276403  0.50875637  0.20054546     0.12400
C1346       C  0.02974308  0.54766781  0.15379378    -0.23100
H1347       H  0.96561567  0.45654835  0.15355469     0.08000
C1348       C  0.87683135  0.37806290  0.17071422     0.04400
C1349       C  0.84046159  0.33198772  0.16805303    -0.20300
C1350       C  0.84930612  0.29477975  0.16724730    -0.12600
C1351       C  0.89543035  0.30396837  0.16973575     0.13100
C1352       C  0.93160444  0.34988440  0.17216256    -0.23000
C1353       C  0.86581540  0.41690046  0.17155393    -0.06100
H1354       H  0.80554256  0.32540933  0.16591759     0.14600
C1355       C  0.90790036  0.26598387  0.16966109    -0.16300
H1356       H  0.96688301  0.35658469  0.17369044     0.08900
H1357       H  0.99885025  0.54904903  0.14994736     0.06800
H1358       H  0.04332537  0.53504278  0.14529618     0.08000
H1359       H  0.05731525  0.58358921  0.15652141     0.07000
H1360       H  0.97190604  0.38765133  0.19838818     0.01900
H1361       H  0.92870874  0.40459731  0.20189859     0.02400
H1362       H  0.98513876  0.43505511  0.21003584     0.05900
H1363       H  0.82789384  0.40375405  0.17028139     0.04900
H1364       H  0.88464427  0.44280916  0.16324589    -0.00900
H1365       H  0.87673669  0.43436082  0.18183100     0.00600
H1366       H  0.92436641  0.26615267  0.17971897     0.04300
H1367       H  0.93301449  0.27231131  0.16114202     0.06200
H1368       H  0.87715415  0.23071265  0.16828057     0.07100
C1369       C  0.46866287  0.96830649  0.16622931    -0.22600
C1370       C  0.45730323  0.94172666  0.17844852     0.09400
C1371       C  0.49279805  0.95394439  0.18852964     0.09800
C1372       C  0.53896413  0.98994113  0.18571545    -0.17500
C1373       C  0.55068977  0.01527914  0.17321426    -0.27900
C1374       C  0.51439919  0.00485130  0.16356031     0.18100
C1375       C  0.40821024  0.90166793  0.18041839     0.12100
C1376       C  0.48214874  0.92890104  0.20224858    -0.08600
H1377       H  0.56658455  0.99657402  0.19299122     0.12400
C1378       C  0.52324288  0.03039397  0.14997734    -0.23100
H1379       H  0.44183953  0.95961008  0.15846305     0.08000
C1380       C  0.37006086  0.90920213  0.18210315     0.04400
C1381       C  0.32500133  0.87101937  0.18434094    -0.20300
C1382       C  0.31638793  0.82499212  0.18536001    -0.12600
C1383       C  0.35427863  0.81711340  0.18344228     0.13100
C1384       C  0.39939662  0.85534260  0.18074115    -0.23000
C1385       C  0.37699309  0.95775897  0.18234734    -0.06100
H1386       H  0.29633732  0.87744052  0.18607557     0.14600
C1387       C  0.34885707  0.76942218  0.18486986    -0.16300
H1388       H  0.42824398  0.84904197  0.17929615     0.08900
H1389       H  0.50072852  0.04632610  0.14930789     0.06800
H1390       H  0.51461303  0.00551105  0.14122707     0.08000
H1391       H  0.55995487  0.05873883  0.14882867     0.07000
H1392       H  0.47036713  0.89147935  0.20060211     0.01900
H1393       H  0.45431063  0.93215639  0.20768231     0.02400
H1394       H  0.51331093  0.94370148  0.20910256     0.05900
H1395       H  0.34399401  0.95750175  0.18466902     0.04900
H1396       H  0.38963962  0.97470708  0.17210814    -0.00900
H1397       H  0.40279054  0.97881063  0.19049012     0.00600
H1398       H  0.35986320  0.75995294  0.17507773     0.04300
H1399       H  0.31241534  0.74203254  0.18708834     0.06200
H1400       H  0.37127031  0.76971623  0.19348749     0.07100
C1401       C  0.18839034  0.88740150  0.28343214    -0.22600
C1402       C  0.22943081  0.89125775  0.28885934     0.09400
C1403       C  0.25242831  0.87192719  0.28143299     0.09800
C1404       C  0.23376435  0.84901446  0.26875656    -0.17500
C1405       C  0.19233993  0.84462098  0.26323126    -0.27900
C1406       C  0.16935852  0.86430432  0.27077644     0.18100
C1407       C  0.24784484  0.91619532  0.30227865     0.12100
C1408       C  0.29708472  0.87607297  0.28678661    -0.12200
H1409       H  0.25151564  0.83388600  0.26321807     0.12400
C1410       C  0.12531294  0.86210101  0.26559940    -0.23100
H1411       H  0.17107345  0.90253746  0.28920605     0.08000
C1412       C  0.27105074  0.96527229  0.30305448     0.04400
C1413       C  0.28634727  0.98736232  0.31600745    -0.20300
C1414       C  0.28010837  0.96171251  0.32824341    -0.12600
C1415       C  0.25719596  0.91236524  0.32741176     0.13100
C1416       C  0.24137903  0.89035919  0.31443552    -0.23000
C1417       C  0.28104885  0.99436552  0.29013618    -0.06100
H1418       H  0.30469822  0.02512907  0.31651454     0.14600
C1419       C  0.24755204  0.88160162  0.33993305    -0.16300
H1420       H  0.22338052  0.85261784  0.31380779     0.08900
H1421       H  0.11443279  0.88214398  0.27237896     0.06800
H1422       H  0.09620294  0.82545046  0.26550641     0.08000
H1423       H  0.13095982  0.87710057  0.25499748     0.07000
H1424       H  0.29102848  0.85905505  0.29709145     0.01900
H1425       H  0.32408038  0.91345062  0.28779041     0.02400
H1426       H  0.31068050  0.85914669  0.27969563     0.05900
H1427       H  0.30066998  0.03227089  0.29251379     0.04900
H1428       H  0.24788357  0.98636209  0.28498619    -0.00900
H1429       H  0.30233583  0.98663861  0.28284829     0.00600
H1430       H  0.20987624  0.85497439  0.34026490     0.04300
H1431       H  0.25581671  0.90080572  0.34990083     0.06200
H1432       H  0.26812279  0.86358240  0.33916852     0.07100
C1433       C  0.76236582  0.68687315  0.38122399    -0.22600
C1434       C  0.80749787  0.69386325  0.38003590     0.09400
C1435       C  0.82990945  0.70483772  0.36697691     0.09800
C1436       C  0.80660125  0.70927544  0.35537431    -0.17500
C1437       C  0.76149081  0.70278945  0.35662596    -0.27900
C1438       C  0.73902058  0.69116061  0.36973661     0.18100
C1439       C  0.82956517  0.68836480  0.39270231     0.12100
C1440       C  0.87847870  0.71249259  0.36536977    -0.12200
H1441       H  0.82370142  0.71817270  0.34533246     0.12400
C1442       C  0.69039007  0.68256036  0.37212476    -0.23100
H1443       H  0.74511899  0.67787397  0.39125527     0.08000
C1444       C  0.84572976  0.72198124  0.40344051     0.04400
C1445       C  0.86134142  0.71274053  0.41593744    -0.20300
C1446       C  0.86072359  0.67055709  0.41791686    -0.12600
C1447       C  0.84656075  0.63783438  0.40691601     0.13100
C1448       C  0.83075924  0.64704165  0.39447662    -0.23000
C1449       C  0.84645496  0.76750134  0.40169721    -0.06100
H1450       H  0.87322514  0.73809599  0.42430014     0.14600
C1451       C  0.84869826  0.59351543  0.40777697    -0.16300
H1452       H  0.81853783  0.62143980  0.38617366     0.08900
H1453       H  0.69136696  0.70788690  0.37988034     0.06800
H1454       H  0.66797587  0.64668096  0.37617125     0.08000
H1455       H  0.67395362  0.68600490  0.36263238     0.07000
H1456       H  0.87889761  0.68025547  0.36819839     0.01900
H1457       H  0.90281750  0.74140808  0.37226465     0.02400
H1458       H  0.89121445  0.72164702  0.35451913     0.05900
H1459       H  0.86168577  0.79048327  0.41090662     0.04900
H1460       H  0.81042450  0.76097319  0.40025737    -0.00900
H1461       H  0.86779288  0.78619208  0.39248018     0.00600
H1462       H  0.81372962  0.56311667  0.40561806     0.04300
H1463       H  0.86045420  0.58833020  0.41804191     0.06200
H1464       H  0.87339552  0.59433189  0.39982052     0.07100
C1465       C  0.68893011  0.84378341  0.22956838    -0.22600
C1466       C  0.69645014  0.88923059  0.23000102     0.09400
C1467       C  0.69442454  0.90867904  0.24287276     0.09800
C1468       C  0.68565999  0.88232044  0.25509952    -0.17500
C1469       C  0.67954721  0.83718278  0.25475292    -0.27900
C1470       C  0.68049374  0.81746382  0.24173395     0.18100
C1471       C  0.70454610  0.91491320  0.21671466     0.12100
C1472       C  0.70225052  0.95746742  0.24369695    -0.12200
H1473       H  0.68458836  0.89738720  0.26500217     0.12400
C1474       C  0.67121244  0.76818455  0.24045755    -0.23100
H1475       H  0.68967087  0.82885075  0.21960565     0.08000
C1476       C  0.74857927  0.93733634  0.21016601     0.04400
C1477       C  0.75414155  0.96082539  0.19752724    -0.20300
C1478       C  0.71656077  0.96219740  0.19116848    -0.12600
C1479       C  0.67207241  0.93884288  0.19776824     0.13100
C1480       C  0.66687669  0.91557793  0.21040356    -0.23000
C1481       C  0.78981072  0.93705243  0.21664741    -0.06100
H1482       H  0.78818742  0.97848950  0.19263201     0.14600
C1483       C  0.62997533  0.93933819  0.19197125    -0.16300
H1484       H  0.63313493  0.89788782  0.21549149     0.08900
H1485       H  0.66922933  0.75738029  0.22943429     0.06800
H1486       H  0.63748216  0.74369087  0.24549448     0.08000
H1487       H  0.69992864  0.76534608  0.24535746     0.07000
H1488       H  0.67556329  0.96006488  0.23741340     0.01900
H1489       H  0.73748942  0.98251648  0.23964172     0.02400
H1490       H  0.69985514  0.96753801  0.25454692     0.05900
H1491       H  0.82184761  0.95658242  0.21026970     0.04900
H1492       H  0.78246181  0.90063055  0.21769224    -0.00900
H1493       H  0.79670763  0.95349830  0.22708732     0.00600
H1494       H  0.59925059  0.92154791  0.19895758     0.04300
H1495       H  0.61985814  0.92072972  0.18186150     0.06200
H1496       H  0.63779028  0.97583844  0.19064782     0.07100
C1497       C  0.85894045  0.59773149  0.24946122    -0.22600
C1498       C  0.84242298  0.62908886  0.25049748     0.09400
C1499       C  0.85904041  0.66718402  0.24128086     0.09800
C1500       C  0.89519815  0.67563431  0.23209141    -0.17500
C1501       C  0.91468652  0.64661580  0.23184667    -0.27900
C1502       C  0.89497775  0.60593458  0.24017451     0.18100
C1503       C  0.81432140  0.62705389  0.26265165     0.12100
C1504       C  0.84037722  0.70039305  0.24170562    -0.12200
H1505       H  0.91049631  0.70679660  0.22572972     0.12400
C1506       C  0.91316700  0.57235834  0.24033327    -0.23100
H1507       H  0.84577617  0.56841674  0.25653694     0.08000
C1508       C  0.76525849  0.60430663  0.26213095     0.04400
C1509       C  0.74141924  0.61437260  0.27236606    -0.20300
C1510       C  0.76590173  0.64666606  0.28294669    -0.12600
C1511       C  0.81448564  0.66585201  0.28420350     0.13100
C1512       C  0.83822192  0.65542469  0.27405896    -0.23000
C1513       C  0.73849789  0.57114142  0.25051740    -0.06100
H1514       H  0.70396025  0.59960815  0.27155037     0.14600
C1515       C  0.84126477  0.69829912  0.29597309    -0.16300
H1516       H  0.87595654  0.67217822  0.27444969     0.08900
H1517       H  0.88441739  0.53689119  0.23763837     0.06800
H1518       H  0.92619614  0.57147401  0.25088460     0.08000
H1519       H  0.94191920  0.58149958  0.23288554     0.07000
H1520       H  0.84695029  0.71739951  0.25204969     0.01900
H1521       H  0.80224116  0.68100484  0.23968362     0.02400
H1522       H  0.85715168  0.72821325  0.23375543     0.05900
H1523       H  0.70029721  0.55669958  0.25164893     0.04900
H1524       H  0.74538798  0.54161799  0.25057323    -0.00900
H1525       H  0.74949789  0.58934877  0.24037695     0.00600
H1526       H  0.82685571  0.68049953  0.30603265     0.04300
H1527       H  0.83843387  0.73024487  0.29544520     0.06200
H1528       H  0.87884906  0.70896220  0.29560863     0.07100
C1529       C  0.31082128  0.68823484  0.26284416    -0.22600
C1530       C  0.35497419  0.71649545  0.25697822     0.09400
C1531       C  0.35998878  0.74524597  0.24558414     0.09800
C1532       C  0.32059332  0.74536513  0.24037790    -0.17500
C1533       C  0.27600273  0.71682109  0.24611579    -0.27900
C1534       C  0.27110302  0.68775249  0.25754468     0.18100
C1535       C  0.39547247  0.71535576  0.26298325     0.12100
C1536       C  0.40684018  0.77587057  0.23891926    -0.12200
H1537       H  0.32460672  0.76720693  0.23151834     0.12400
C1538       C  0.22466651  0.65672980  0.26440110    -0.23100
H1539       H  0.30749440  0.66617407  0.27157737     0.08000
C1540       C  0.41518583  0.73744896  0.27572218     0.04400
C1541       C  0.45350644  0.73545490  0.28101257    -0.20300
C1542       C  0.47229954  0.71133628  0.27399109    -0.12600
C1543       C  0.45192009  0.68849702  0.26130061     0.13100
C1544       C  0.41390212  0.69115677  0.25591385    -0.23000
C1545       C  0.39612903  0.76350571  0.28368202    -0.06100
H1546       H  0.46856910  0.75243078  0.29082797     0.14600
C1547       C  0.47042730  0.66216713  0.25323813    -0.16300
H1548       H  0.39817975  0.67404217  0.24617171     0.08900
H1549       H  0.22833000  0.63926367  0.27375660     0.06800
H1550       H  0.20102236  0.62888291  0.25711689     0.08000
H1551       H  0.20868517  0.67772927  0.26770305     0.07000
H1552       H  0.42085303  0.75410720  0.23473437     0.01900
H1553       H  0.43153424  0.80061487  0.24672278     0.02400
H1554       H  0.40448701  0.79643229  0.23017777     0.05900
H1555       H  0.41612682  0.77920838  0.29337587     0.04900
H1556       H  0.35927944  0.73939178  0.28662758    -0.00900
H1557       H  0.39800707  0.79198020  0.27715766     0.00600
H1558       H  0.46522030  0.63141292  0.25926328     0.04300
H1559       H  0.50814207  0.68530418  0.25104309     0.06200
H1560       H  0.45209156  0.64921561  0.24315255     0.07100
C1561       C  0.52237646  0.37760003  0.36654553    -0.22600
C1562       C  0.51804902  0.38895489  0.35281006     0.09400
C1563       C  0.51086080  0.35584400  0.34226415     0.09800
C1564       C  0.50283285  0.31082818  0.34590550    -0.17500
C1565       C  0.50505668  0.29888094  0.35978637    -0.27900
C1566       C  0.51803340  0.33435700  0.37006509     0.18100
C1567       C  0.52798860  0.43796175  0.34982334     0.12100
C1568       C  0.51407041  0.36853480  0.32713620    -0.12200
H1569       H  0.49393731  0.28466755  0.33790066     0.12400
C1570       C  0.52881353  0.32835099  0.38490724    -0.23100
H1571       H  0.53079753  0.40350017  0.37461969     0.08000
C1572       C  0.49359455  0.44902667  0.34550121     0.04400
C1573       C  0.50680238  0.49590191  0.34215311    -0.20300
C1574       C  0.55297874  0.53263047  0.34397363    -0.12600
C1575       C  0.58557328  0.52176183  0.34999931     0.13100
C1576       C  0.57306464  0.47508011  0.35250682    -0.23000
C1577       C  0.44276157  0.41206850  0.34505007    -0.06100
H1578       H  0.48132254  0.50360404  0.33774799     0.14600
C1579       C  0.63441294  0.55891561  0.35391472    -0.16300
H1580       H  0.59907544  0.46756275  0.35661278     0.08900
H1581       H  0.50129253  0.32656902  0.39190788     0.06800
H1582       H  0.56292082  0.35858127  0.38800823     0.08000
H1583       H  0.53207113  0.29694521  0.38638114     0.07000
H1584       H  0.54893591  0.39915403  0.32497791     0.01900
H1585       H  0.48699110  0.37720698  0.32428291     0.02400
H1586       H  0.50954024  0.33945201  0.32032514     0.05900
H1587       H  0.42047621  0.42694592  0.34209949     0.04900
H1588       H  0.43157268  0.39605340  0.35548389    -0.00900
H1589       H  0.43641809  0.38439540  0.33747399     0.00600
H1590       H  0.63991063  0.55628696  0.36517721     0.04300
H1591       H  0.64119714  0.59475483  0.35199114     0.06200
H1592       H  0.66021699  0.55371548  0.34798118     0.07100
C1593       C  0.49501150  0.85110296  0.33872813    -0.22600
C1594       C  0.53300271  0.89685778  0.34015651     0.09400
C1595       C  0.57863372  0.90378680  0.33931202     0.09800
C1596       C  0.58522006  0.86549154  0.33690037    -0.17500
C1597       C  0.54748490  0.81990971  0.33495425    -0.27900
C1598       C  0.50164789  0.81284140  0.33585053     0.18100
C1599       C  0.52472884  0.93715673  0.34247013     0.12100
C1600       C  0.62057556  0.95209295  0.34019692    -0.12200
H1601       H  0.62042663  0.87164014  0.33567130     0.12400
C1602       C  0.45918799  0.76607988  0.33307681    -0.23100
H1603       H  0.45984784  0.84540806  0.33938732     0.08000
C1604       C  0.50952791  0.95573956  0.33176567     0.04400
C1605       C  0.50037361  0.99236949  0.33473469    -0.20300
C1606       C  0.50678697  0.01166878  0.34814702    -0.12600
C1607       C  0.52500603  0.99482250  0.35854760     0.13100
C1608       C  0.53334538  0.95795897  0.35563416    -0.23000
C1609       C  0.50223635  0.93632645  0.31725837    -0.06100
H1610       H  0.48528656  0.00384922  0.32677432     0.14600
C1611       C  0.53425152  0.01383132  0.37311312    -0.16300
H1612       H  0.54576325  0.94459155  0.36385152     0.08900
H1613       H  0.43970258  0.76889005  0.32409937     0.06800
H1614       H  0.43615910  0.75485147  0.34234830     0.08000
H1615       H  0.46803473  0.73867781  0.33068145     0.07000
H1616       H  0.62175716  0.96770388  0.35049860     0.01900
H1617       H  0.61855378  0.97438109  0.33194409     0.02400
H1618       H  0.65369407  0.95173663  0.33880146     0.05900
H1619       H  0.49139383  0.95523377  0.31003256     0.04900
H1620       H  0.47466584  0.89900833  0.31725928    -0.00900
H1621       H  0.53526354  0.93957128  0.31331098     0.00600
H1622       H  0.51174425  0.98574234  0.38048296     0.04300
H1623       H  0.52746164  0.04308833  0.37433968     0.06200
H1624       H  0.57138372  0.02689023  0.37580244     0.07100
C1625       C  0.77539728  0.02289392  0.80150324    -0.22600
C1626       C  0.79343565  0.07113437  0.80133102     0.09400
C1627       C  0.79266582  0.09412411  0.81358820     0.09800
C1628       C  0.77252937  0.06800759  0.82570116    -0.17500
C1629       C  0.75389831  0.01940669  0.82592989    -0.27900
C1630       C  0.75588295  0.99667472  0.81361555     0.18100
C1631       C  0.81044385  0.09625473  0.78794585     0.12100
C1632       C  0.81326437  0.14622336  0.81385684    -0.12200
H1633       H  0.77141338  0.08568270  0.83505602     0.12400
C1634       C  0.73618515  0.94466784  0.81289185    -0.23100
H1635       H  0.77607835  0.00560803  0.79200385     0.08000
C1636       C  0.85549459  0.11044080  0.78286345     0.04400
C1637       C  0.86912873  0.13274603  0.76990005    -0.20300
C1638       C  0.83871199  0.14119177  0.76175070    -0.12600
C1639       C  0.79330778  0.12694266  0.76706142     0.13100
C1640       C  0.78002375  0.10466738  0.78003885    -0.23000
C1641       C  0.88924610  0.10230296  0.79118729    -0.06100
H1642       H  0.90393962  0.14358762  0.76613522     0.14600
C1643       C  0.75857386  0.13566437  0.75946517    -0.16300
H1644       H  0.74547065  0.09359234  0.78410373     0.08900
H1645       H  0.75646438  0.93457025  0.81978093     0.06800
H1646       H  0.73826651  0.93292175  0.80223582     0.08000
H1647       H  0.69889009  0.92621242  0.81602477     0.07000
H1648       H  0.79462220  0.15651867  0.80635820     0.01900
H1649       H  0.85075102  0.16353170  0.81098013     0.02400
H1650       H  0.81056953  0.15886674  0.82431917     0.05900
H1651       H  0.92343586  0.11631172  0.78585727     0.04900
H1652       H  0.87470537  0.06433665  0.79278892    -0.00900
H1653       H  0.89535291  0.11979260  0.80144589     0.00600
H1654       H  0.74866140  0.11630156  0.74947393     0.04300
H1655       H  0.77372563  0.17358126  0.75759625     0.06200
H1656       H  0.72595739  0.12369625  0.76552091     0.07100
C1657       C  0.48785887  0.01902804  0.85436177    -0.22600
C1658       C  0.50578336  0.05015800  0.84313569     0.09400
C1659       C  0.53273422  0.04295144  0.83303893     0.09800
C1660       C  0.54362157  0.00718161  0.83494918    -0.17500
C1661       C  0.52698244  0.97700032  0.84644395    -0.27900
C1662       C  0.49752677  0.98244151  0.85602313     0.18100
C1663       C  0.49546281  0.08946521  0.84209554     0.12100
C1664       C  0.55017625  0.07295026  0.82023184    -0.12200
H1665       H  0.56743510  0.00436338  0.82780904     0.12400
C1666       C  0.47749234  0.95147689  0.86852125    -0.23100
H1667       H  0.46703907  0.02398737  0.86213945     0.08000
C1668       C  0.44968799  0.08087371  0.83977185     0.04400
C1669       C  0.44196149  0.11859867  0.83800009    -0.20300
C1670       C  0.47876757  0.16521717  0.83783500    -0.12600
C1671       C  0.52441572  0.17407138  0.84072002     0.13100
C1672       C  0.53198032  0.13619426  0.84307928    -0.23000
C1673       C  0.40913954  0.03192535  0.83818151    -0.06100
H1674       H  0.40693927  0.11146342  0.83571210     0.14600
C1675       C  0.56612072  0.22253630  0.84066654    -0.16300
H1676       H  0.56708224  0.14319120  0.84515247     0.08900
H1677       H  0.43887504  0.93486113  0.86837220     0.06800
H1678       H  0.49103560  0.97255579  0.87814883     0.08000
H1679       H  0.48613967  0.92325910  0.86870721     0.07000
H1680       H  0.57421166  0.10983373  0.82312219     0.01900
H1681       H  0.52015139  0.07044254  0.81436109     0.02400
H1682       H  0.56945905  0.06174625  0.81324207     0.05900
H1683       H  0.37632046  0.03165238  0.83559234     0.04900
H1684       H  0.40311407  0.01226956  0.84799014    -0.00900
H1685       H  0.41645691  0.01378621  0.82968063     0.00600
H1686       H  0.58362070  0.23008007  0.85094615     0.04300
H1687       H  0.55680024  0.24970856  0.83856713     0.06200
H1688       H  0.59112107  0.22501390  0.83255223     0.07100
C1689       C  0.49581525  0.61694491  0.84732852    -0.22600
C1690       C  0.53084810  0.60544947  0.84975366     0.09400
C1691       C  0.57471908  0.64078447  0.85457621     0.09800
C1692       C  0.58195118  0.68573660  0.85725428    -0.17500
C1693       C  0.54658655  0.69719760  0.85534556    -0.27900
C1694       C  0.50292418  0.66209115  0.85011930     0.18100
C1695       C  0.52102311  0.55642182  0.84727479     0.12100
C1696       C  0.61366491  0.63080587  0.85734689    -0.12200
H1697       H  0.61548221  0.71210679  0.86131085     0.12400
C1698       C  0.46241564  0.66998764  0.84794955    -0.23100
H1699       H  0.46216828  0.59009928  0.84349929     0.08000
C1700       C  0.49253966  0.51915976  0.85631220     0.04400
C1701       C  0.48268279  0.47338562  0.85317468    -0.20300
C1702       C  0.50014582  0.46344033  0.84112363    -0.12600
C1703       C  0.52987662  0.50108999  0.83233878     0.13100
C1704       C  0.54023732  0.54684526  0.83557763    -0.23000
C1705       C  0.47151501  0.52742683  0.86911120    -0.06100
H1706       H  0.45858390  0.44469526  0.85968146     0.14600
C1707       C  0.54946825  0.49374282  0.81906113    -0.16300
H1708       H  0.56225057  0.57511388  0.82861780     0.08900
H1709       H  0.43264203  0.64534725  0.85451750     0.06800
H1710       H  0.45156487  0.66354232  0.83688362     0.08000
H1711       H  0.47055859  0.70575627  0.85063926     0.07000
H1712       H  0.62362849  0.62021680  0.84757541     0.01900
H1713       H  0.60213580  0.60232550  0.86508405     0.02400
H1714       H  0.64524262  0.66189935  0.86149581     0.05900
H1715       H  0.45047289  0.49479035  0.87509683     0.04900
H1716       H  0.44822871  0.54107275  0.86614081    -0.00900
H1717       H  0.49968534  0.55307683  0.87596538     0.00600
H1718       H  0.53584691  0.50425272  0.81007341     0.04300
H1719       H  0.54034247  0.45697033  0.81757005     0.06200
H1720       H  0.58811602  0.51542356  0.81921639     0.07100
C1721       C  0.67664906  0.76832366  0.98044620    -0.22600
C1722       C  0.71129745  0.78131309  0.97029595     0.09400
C1723       C  0.75094658  0.77762184  0.97305199     0.09800
C1724       C  0.75414485  0.75883450  0.98572104    -0.17500
C1725       C  0.71865779  0.74363839  0.99588134    -0.27900
C1726       C  0.67972540  0.74962000  0.99324797     0.18100
C1727       C  0.70528183  0.79821788  0.95671172     0.12100
C1728       C  0.78955366  0.79285559  0.96249522    -0.12200
H1729       H  0.78435556  0.75499253  0.98746326     0.12400
C1730       C  0.64141114  0.73692953  0.00373570    -0.23100
H1731       H  0.64670030  0.77223568  0.97821876     0.08000
C1732       C  0.67980235  0.76709369  0.94592300     0.04400
C1733       C  0.67452796  0.78479951  0.93327181    -0.20300
C1734       C  0.69460987  0.83316896  0.93104908    -0.12600
C1735       C  0.72229237  0.86434489  0.94184589     0.13100
C1736       C  0.72677527  0.84619882  0.95452102    -0.23000
C1737       C  0.65843583  0.71521069  0.94777321    -0.06100
H1738       H  0.65412491  0.76042453  0.92513761     0.14600
C1739       C  0.74684817  0.91670295  0.94047553    -0.16300
H1740       H  0.74709065  0.86957993  0.96287430     0.08900
H1741       H  0.62189389  0.69866506  0.00538733     0.06800
H1742       H  0.61585110  0.74711355  0.00018723     0.08000
H1743       H  0.65652644  0.75527394  0.01369505     0.07000
H1744       H  0.80485813  0.83062370  0.96031587     0.01900
H1745       H  0.77551115  0.77289580  0.95270330     0.02400
H1746       H  0.81797556  0.78707161  0.96622622     0.05900
H1747       H  0.63976941  0.69569130  0.93828174     0.04900
H1748       H  0.63308047  0.70316020  0.95648570    -0.00900
H1749       H  0.68622426  0.70678613  0.95010441     0.00600
H1750       H  0.76726837  0.93469966  0.94991466     0.04300
H1751       H  0.72079550  0.92799652  0.93898816     0.06200
H1752       H  0.77177268  0.92823377  0.93165106     0.07100
C1753       C  0.90172078  0.21510099  0.03555907    -0.22600
C1754       C  0.92802347  0.21829649  0.04736664     0.09400
C1755       C  0.97656459  0.23697295  0.04610934     0.09800
C1756       C  0.99776293  0.25196477  0.03308063    -0.17500
C1757       C  0.97196993  0.25003415  0.02123038    -0.27900
C1758       C  0.92314970  0.23129962  0.02251433     0.18100
C1759       C  0.90442442  0.20217795  0.06102490     0.12100
C1760       C  0.00627802  0.24255502  0.05862166    -0.12200
H1761       H  0.03525413  0.26704821  0.03227014     0.12400
C1762       C  0.89339131  0.22754586  0.01021846    -0.23100
H1763       H  0.86435735  0.20044792  0.03662313     0.08000
C1764       C  0.89221039  0.22989408  0.06914954     0.04400
C1765       C  0.87132194  0.21370690  0.08221880    -0.20300
C1766       C  0.86210034  0.17017863  0.08741675    -0.12600
C1767       C  0.87526506  0.14275472  0.07919666     0.13100
C1768       C  0.89615744  0.15926770  0.06616498    -0.23000
C1769       C  0.90169701  0.27678816  0.06405319    -0.06100
H1770       H  0.86145287  0.23498168  0.08829212     0.14600
C1771       C  0.86852032  0.09642644  0.08398756    -0.16300
H1772       H  0.90628204  0.13857721  0.05988587     0.08900
H1773       H  0.90313497  0.26281415  0.00639372     0.06800
H1774       H  0.85575361  0.20958039  0.01296479     0.08000
H1775       H  0.89813957  0.20736196  0.00179346     0.07000
H1776       H  0.99518543  0.20800229  0.06332078     0.01900
H1777       H  0.00256387  0.26521699  0.06642532     0.02400
H1778       H  0.04380083  0.25876205  0.05587003     0.05900
H1779       H  0.89072906  0.29444804  0.07174676     0.04900
H1780       H  0.88224997  0.27250976  0.05426631    -0.00900
H1781       H  0.93963120  0.29956554  0.06209638     0.00600
H1782       H  0.88469456  0.08247063  0.07673559     0.04300
H1783       H  0.83080283  0.07022551  0.08447859     0.06200
H1784       H  0.88496646  0.10037157  0.09432012     0.07100
C1785       C  0.20199301  0.35656217  0.89469274    -0.22600
C1786       C  0.23306302  0.33955526  0.89429566     0.09400
C1787       C  0.25000456  0.33158794  0.90684527     0.09800
C1788       C  0.23382477  0.33893848  0.91957195    -0.17500
C1789       C  0.20111719  0.35403081  0.91997931    -0.27900
C1790       C  0.18613887  0.36440304  0.90737374     0.18100
C1791       C  0.24728911  0.33004790  0.88062621     0.12100
C1792       C  0.28480586  0.31494409  0.90677411    -0.12200
H1793       H  0.24563973  0.33153339  0.92922599     0.12400
C1794       C  0.15439548  0.38479580  0.90687885    -0.23100
H1795       H  0.18996975  0.36369353  0.88502937     0.08000
C1796       C  0.22421128  0.28512589  0.87467842     0.04400
C1797       C  0.24139113  0.27677440  0.86230228    -0.20300
C1798       C  0.28051299  0.31265065  0.85545765    -0.12600
C1799       C  0.30186883  0.35861078  0.86113522     0.13100
C1800       C  0.28501198  0.36639402  0.87367384    -0.23000
C1801       C  0.18133540  0.24609102  0.88140663    -0.06100
H1802       H  0.22428112  0.24181232  0.85801540     0.14600
C1803       C  0.34334587  0.39967868  0.85447471    -0.16300
H1804       H  0.30188997  0.40095218  0.87826114     0.08900
H1805       H  0.12108387  0.35979962  0.90172895     0.06800
H1806       H  0.17141278  0.41769020  0.90081334     0.08000
H1807       H  0.14650812  0.39346691  0.91727228     0.07000
H1808       H  0.31708075  0.34078424  0.90134402     0.01900
H1809       H  0.26996320  0.28090939  0.90132813     0.02400
H1810       H  0.29437690  0.31037593  0.91747090     0.05900
H1811       H  0.16739669  0.21308100  0.87542447     0.04900
H1812       H  0.15366614  0.25564371  0.88200085    -0.00900
H1813       H  0.18961995  0.23972300  0.89205618     0.00600
H1814       H  0.33358047  0.40628495  0.84405598     0.04300
H1815       H  0.37277994  0.39279363  0.85358847     0.06200
H1816       H  0.35584577  0.43217991  0.86063948     0.07100
C1817       C  0.87561955  0.25655326  0.92380977    -0.22600
C1818       C  0.84819377  0.20840867  0.92578313     0.09400
C1819       C  0.85298536  0.18794865  0.93807648     0.09800
C1820       C  0.88730103  0.21590296  0.94778259    -0.17500
C1821       C  0.91706455  0.26352237  0.94533924    -0.27900
C1822       C  0.91009281  0.28447532  0.93347559     0.18100
C1823       C  0.82038407  0.17866376  0.91408121     0.12100
C1824       C  0.82399491  0.13611128  0.94049619    -0.12200
H1825       H  0.89330146  0.19992291  0.95676434     0.12400
C1826       C  0.93978635  0.33576190  0.93041233    -0.23100
H1827       H  0.87180621  0.27200254  0.91434263     0.08000
C1828       C  0.77165093  0.15952593  0.91336634     0.04400
C1829       C  0.74567404  0.12200944  0.90431471    -0.20300
C1830       C  0.76779782  0.10379377  0.89607865    -0.12600
C1831       C  0.81695216  0.12628155  0.89575929     0.13100
C1832       C  0.84274774  0.16368827  0.90476632    -0.23000
C1833       C  0.74719669  0.17751239  0.92251406    -0.06100
H1834       H  0.70787905  0.10458938  0.90446996     0.14600
C1835       C  0.84293848  0.11036500  0.88644833    -0.16300
H1836       H  0.88037259  0.17919180  0.90519606     0.08900
H1837       H  0.91705548  0.35133475  0.92933912     0.06800
H1838       H  0.95906365  0.34066788  0.92053825     0.08000
H1839       H  0.96535606  0.35504956  0.93874144     0.07000
H1840       H  0.83016111  0.11696313  0.93204927     0.01900
H1841       H  0.78642126  0.12532420  0.94071450     0.02400
H1842       H  0.83275461  0.12580840  0.95051860     0.05900
H1843       H  0.70889048  0.15822341  0.92075480     0.04900
H1844       H  0.76055356  0.21491796  0.92021590    -0.00900
H1845       H  0.75367003  0.17384567  0.93361613     0.00600
H1846       H  0.86725900  0.13972620  0.87970783     0.04300
H1847       H  0.81942674  0.08104238  0.87956056     0.06200
H1848       H  0.86335515  0.09911020  0.89286831     0.07100
C1849       C  0.33693277  0.63579890  0.94712765    -0.22600
C1850       C  0.36323920  0.63225858  0.93632380     0.09400
C1851       C  0.35019224  0.58836935  0.93045235     0.09800
C1852       C  0.31038125  0.54869087  0.93546013    -0.17500
C1853       C  0.28319916  0.55229906  0.94602829    -0.27900
C1854       C  0.29705924  0.59631229  0.95212924     0.18100
C1855       C  0.40248972  0.67532558  0.93063559     0.12100
C1856       C  0.37768194  0.58370773  0.91870530    -0.12200
H1857       H  0.29985535  0.51484203  0.93093503     0.12400
C1858       C  0.27162988  0.60308716  0.96410190    -0.23100
H1859       H  0.34743937  0.66971563  0.95160846     0.08000
C1860       C  0.39453621  0.70221770  0.92087615     0.04400
C1861       C  0.43276731  0.74074306  0.91479967    -0.20300
C1862       C  0.47855667  0.75276806  0.91830725    -0.12600
C1863       C  0.48648433  0.72727163  0.92864832     0.13100
C1864       C  0.44813224  0.68846363  0.93463314    -0.23000
C1865       C  0.34574219  0.68937723  0.91660716    -0.06100
H1866       H  0.42694510  0.76047930  0.90687306     0.14600
C1867       C  0.53463526  0.74050513  0.93376700    -0.16300
H1868       H  0.45381742  0.66806511  0.94235999     0.08900
H1869       H  0.25775456  0.62590194  0.96080230     0.06800
H1870       H  0.29623562  0.62008657  0.97286979     0.08000
H1871       H  0.24235775  0.57011882  0.96808640     0.07000
H1872       H  0.41404488  0.59608003  0.92212866     0.01900
H1873       H  0.37817160  0.60491965  0.90972590     0.02400
H1874       H  0.36231459  0.54696123  0.91519423     0.05900
H1875       H  0.34580277  0.71368763  0.90867526     0.04900
H1876       H  0.32607573  0.69063236  0.92578459    -0.00900
H1877       H  0.32748830  0.65361925  0.91216466     0.00600
H1878       H  0.53637157  0.74598787  0.94518267     0.04300
H1879       H  0.56257086  0.77318407  0.92909864     0.06200
H1880       H  0.54199635  0.71199866  0.93141757     0.07100
C1881       C  0.97431502  0.50895620  0.99886682    -0.22600
C1882       C  0.95056248  0.49724291  0.01160496     0.09400
C1883       C  0.96489174  0.47665332  0.02197277     0.09800
C1884       C  0.00032210  0.46577868  0.01899515    -0.17500
C1885       C  0.02275836  0.47597780  0.00600598    -0.27900
C1886       C  0.01031969  0.49929782  0.99603304     0.18100
C1887       C  0.91116409  0.50713308  0.01366556     0.12100
C1888       C  0.94272760  0.46587659  0.03614831    -0.12200
H1889       H  0.00873188  0.44696332  0.02657066     0.12400
C1890       C  0.03345471  0.51314620  0.98201314    -0.23100
H1891       H  0.96396391  0.52495953  0.99087465     0.08000
C1892       C  0.91932211  0.55329673  0.01420147     0.04400
C1893       C  0.88157914  0.56115608  0.01604117    -0.20300
C1894       C  0.83533152  0.52431426  0.01754723    -0.12600
C1895       C  0.82689973  0.47806819  0.01670508     0.13100
C1896       C  0.86470173  0.47007643  0.01462810    -0.23000
C1897       C  0.96815994  0.59457028  0.01355578    -0.06100
H1898       H  0.88854935  0.59667317  0.01708851     0.14600
C1899       C  0.77878885  0.43653927  0.01846961    -0.16300
H1900       H  0.85789299  0.43454225  0.01399511     0.08900
H1901       H  0.06209323  0.50532150  0.98086156     0.06800
H1902       H  0.04857193  0.55127426  0.98055157     0.08000
H1903       H  0.00728165  0.49438159  0.97373341     0.07000
H1904       H  0.90486107  0.44045248  0.03530637     0.01900
H1905       H  0.94774367  0.49843744  0.04105113     0.02400
H1906       H  0.95845188  0.45065648  0.04306442     0.05900
H1907       H  0.96853396  0.62804468  0.01493172     0.04900
H1908       H  0.98417742  0.59581036  0.00333397    -0.00900
H1909       H  0.98976306  0.59189588  0.02191881     0.00600
H1910       H  0.76945125  0.41406803  0.00908860     0.04300
H1911       H  0.75172505  0.44653191  0.01992688     0.06200
H1912       H  0.77824935  0.41609814  0.02766222     0.07100
C1913       C  0.36085437  0.43945653  0.00887624    -0.22600
C1914       C  0.39768916  0.48565175  0.00948555     0.09400
C1915       C  0.38735684  0.52209632  0.00791499     0.09800
C1916       C  0.34125543  0.51136334  0.00469594    -0.17500
C1917       C  0.30484052  0.46491338  0.00343454    -0.27900
C1918       C  0.31484438  0.42868313  0.00605123     0.18100
C1919       C  0.44661953  0.49455591  0.01133600     0.12100
C1920       C  0.42494250  0.57225083  0.00967101    -0.12200
H1921       H  0.33409369  0.53927744  0.00256647     0.12400
C1922       C  0.27776831  0.37786025  0.00564996    -0.23100
H1923       H  0.36822903  0.41131858  0.01026591     0.08000
C1924       C  0.46196548  0.48510019  0.02397601     0.04400
C1925       C  0.50836617  0.49448290  0.02520807    -0.20300
C1926       C  0.54068787  0.51412165  0.01424503    -0.12600
C1927       C  0.52492508  0.52254811  0.00150151     0.13100
C1928       C  0.47814582  0.51202215  0.00014361    -0.23000
C1929       C  0.43038814  0.46803393  0.03648347    -0.06100
H1930       H  0.52062008  0.48990993  0.03519955     0.14600
C1931       C  0.55729235  0.54497052  0.98938098    -0.16300
H1932       H  0.46655860  0.51888874  0.99036189     0.08900
H1933       H  0.27613225  0.36182334  0.01589881     0.06800
H1934       H  0.28673854  0.35955341  0.99761856     0.08000
H1935       H  0.24251117  0.37224379  0.00338125     0.07000
H1936       H  0.45267061  0.58172081  0.00177514     0.01900
H1937       H  0.44043633  0.57741467  0.02020521     0.02400
H1938       H  0.41092649  0.59629403  0.00850286     0.05900
H1939       H  0.44836749  0.46423077  0.04569479     0.04900
H1940       H  0.39939908  0.43350679  0.03428952    -0.00900
H1941       H  0.41880750  0.49329426  0.03914057     0.00600
H1942       H  0.54336092  0.52190699  0.98014308     0.04300
H1943       H  0.59295661  0.55124895  0.99139418     0.06200
H1944       H  0.55975480  0.57891429  0.98700484     0.07100
loop_ 
_geom_bond_atom_site_label_1 
_geom_bond_atom_site_label_2 
_geom_bond_distance 
_geom_bond_site_symmetry_2 
_ccdc_geom_bond_type 
Zr1           O2   2.445   1_455  S
Zr1           O3   2.456   1_456  S
Zr1           O4   2.453   1_455  S
Zr1           O7   2.408       .  S
Zr1           O9   2.379       .  S
Zr1          O10   2.394       .  S
Zr1          O11   2.415       .  S
Zr1          O12   2.406       .  S
O2           H58   0.990       .  S
O2           H66   0.991       .  S
O3           C23   1.286       .  A
O4           C25   1.283       .  A
O5          Zr15   2.512   1_554  S
O5           C24   1.300       .  A
O6          Zr14   2.407   1_655  S
O6           C25   1.276       .  A
O7           C24   1.279   1_556  A
O8          Zr16   2.424   1_554  S
O8           C23   1.283   1_455  A
O9          Zr14   2.403       .  S
O9          Zr16   2.383       .  S
O10         Zr15   2.393       .  S
O10         Zr16   2.391       .  S
O10          H45   0.964   1_556  S
O11         Zr14   2.401       .  S
O11         Zr31   2.410       .  S
O11          H48   0.965       .  S
O12         Zr15   2.395       .  S
O12         Zr31   2.386       .  S
Zr13         O38   2.441       .  S
Zr13         O32   2.421       .  S
Zr13         O40   2.401       .  S
Zr13         O28   2.441       .  S
Zr13         O19   2.402       .  S
Zr13         O20   2.402       .  S
Zr13         O21   2.362       .  S
Zr13         O22   2.390       .  S
Zr14         O33   2.444       .  S
Zr14         O26   2.435       .  S
Zr14         O27   2.427       .  S
Zr14         O20   2.390       .  S
Zr14         O21   2.380       .  S
Zr15         O17   2.435   1_556  S
Zr15         O39   2.436   1_556  S
Zr15         O41   2.509   1_556  S
Zr15         O19   2.401       .  S
Zr15         O22   2.381       .  S
Zr16         O42   2.435   1_556  S
Zr16         O43   2.436       .  S
Zr16         O18   2.437       .  S
Zr16         O19   2.392       .  S
Zr16         O20   2.412       .  S
O17          H54   0.990       .  S
O18          H49   0.990       .  S
O18          H63   0.990       .  S
O20          H46   0.967       .  S
O21         Zr31   2.355       .  S
O22         Zr31   2.381       .  S
O22          H47   0.965       .  S
C23        C1757   1.490       .  S
C24        C1885   1.492       .  S
C25        C1821   1.468       .  S
O26          H62   0.990       .  S
O27          C29   1.283       .  A
O28          C29   1.285       .  A
C29        C1789   1.477       .  S
O30         Zr31   2.437       .  S
O30          H59   0.990       .  S
Zr31         O34   2.436       .  S
Zr31         O35   2.435       .  S
Zr31         O36   2.437       .  S
O32          C37   1.282       .  A
O33          H50   0.990       .  S
O33          H65   0.991       .  S
O34          H51   0.990       .  S
O35          H55   0.990       .  S
O35          H64   0.990       .  S
O36          C37   1.285       .  A
C37        C1853   1.468       .  S
O38          H57   0.989       .  S
O38          H61   0.990       .  S
O39          H53   0.990       .  S
O39          H60   0.990       .  S
O40          C44   1.280       .  A
O41          C44   1.300   1_554  A
O42          H52   0.990       .  S
O43          H56   0.989       .  S
C44        C1917   1.492   1_556  S
Zr67         O68   2.444   1_565  S
Zr67         O69   2.449   1_565  S
Zr67         O70   2.444   1_565  S
Zr67         O73   2.395       .  S
Zr67         O75   2.370       .  S
Zr67         O76   2.391       .  S
Zr67         O77   2.411       .  S
Zr67         O78   2.404       .  S
O68         H124   0.990       .  S
O68         H132   0.991       .  S
O69          C89   1.285   1_545  A
O70          C91   1.281       .  A
O71         Zr81   2.521       .  S
O71          C90   1.302       .  A
O72         Zr80   2.401   1_545  S
O72          C91   1.277       .  A
O73          C90   1.276       .  A
O74         Zr82   2.420       .  S
O74          C89   1.279       .  A
O75         Zr80   2.395       .  S
O75         Zr82   2.378       .  S
O76         Zr81   2.404       .  S
O76         Zr82   2.392       .  S
O76         H111   0.965       .  S
O77         Zr80   2.397       .  S
O77         Zr97   2.410       .  S
O77         H114   0.965       .  S
O78         Zr81   2.391       .  S
O78         Zr97   2.383       .  S
Zr79        O104   2.442       .  S
Zr79         O98   2.419       .  S
Zr79        O106   2.400       .  S
Zr79         O94   2.435       .  S
Zr79         O85   2.393       .  S
Zr79         O86   2.400       .  S
Zr79         O87   2.366       .  S
Zr79         O88   2.391       .  S
Zr80         O99   2.440       .  S
Zr80         O92   2.434       .  S
Zr80         O93   2.410       .  S
Zr80         O86   2.388       .  S
Zr80         O87   2.386       .  S
Zr81         O83   2.436       .  S
Zr81        O105   2.434       .  S
Zr81        O107   2.519       .  S
Zr81         O85   2.395       .  S
Zr81         O88   2.395       .  S
Zr82        O108   2.435       .  S
Zr82        O109   2.438       .  S
Zr82         O84   2.439       .  S
Zr82         O85   2.382       .  S
Zr82         O86   2.411       .  S
O83         H120   0.990       .  S
O84         H115   0.990       .  S
O84         H129   0.990       .  S
O86         H112   0.965       .  S
O87         Zr97   2.367       .  S
O88         Zr97   2.389       .  S
O88         H113   0.966       .  S
C89        C1629   1.491   1_565  S
C90        C1661   1.490       .  S
C91        C1830   1.463       .  S
O92         H128   0.990       .  S
O93          C95   1.278       .  A
O94          C95   1.284       .  A
C95        C1734   1.495       .  S
O96         Zr97   2.437       .  S
O96         H125   0.990       .  S
Zr97        O100   2.437       .  S
Zr97        O101   2.436       .  S
Zr97        O102   2.422       .  S
O98         C103   1.281       .  A
O99         H116   0.990       .  S
O99         H131   0.990       .  S
O100        H117   0.990       .  S
O101        H121   0.990       .  S
O101        H130   0.990       .  S
O102        C103   1.281       .  A
C103       C1862   1.466       .  S
O104        H123   0.990       .  S
O104        H127   0.991       .  S
O105        H119   0.990       .  S
O105        H126   0.990       .  S
O106        C110   1.280       .  A
O107        C110   1.302       .  A
O108        H118   0.990       .  S
O109        H122   0.990       .  S
C110       C1693   1.504       .  S
Zr133       O134   2.444       .  S
Zr133       O135   2.452       .  S
Zr133       O136   2.442       .  S
Zr133       O139   2.394       .  S
Zr133       O141   2.372       .  S
Zr133       O142   2.385       .  S
Zr133       O143   2.407       .  S
Zr133       O144   2.407       .  S
O134        H190   0.990       .  S
O134        H198   0.991       .  S
O135        C155   1.285       .  A
O136        C157   1.280       .  A
O137       Zr147   2.536       .  S
O137        C156   1.304       .  A
O138       Zr146   2.407       .  S
O138        C157   1.277       .  A
O139        C156   1.277       .  A
O140       Zr148   2.424       .  S
O140        C155   1.281       .  A
O141       Zr146   2.397       .  S
O141       Zr148   2.379       .  S
O142       Zr147   2.391       .  S
O142       Zr148   2.386       .  S
O142        H177   0.960       .  S
O143       Zr146   2.403       .  S
O143       Zr163   2.411       .  S
O143        H180   0.965       .  S
O144       Zr147   2.397       .  S
O144       Zr163   2.393       .  S
Zr145       O170   2.441       .  S
Zr145       O164   2.422       .  S
Zr145       O172   2.393       .  S
Zr145       O160   2.452       .  S
Zr145       O151   2.403       .  S
Zr145       O152   2.398       .  S
Zr145       O153   2.360       .  S
Zr145       O154   2.395       .  S
Zr146       O165   2.441       .  S
Zr146       O158   2.435       .  S
Zr146       O159   2.422       .  S
Zr146       O152   2.386       .  S
Zr146       O153   2.383       .  S
Zr147       O149   2.435       .  S
Zr147       O171   2.437       .  S
Zr147       O173   2.525       .  S
Zr147       O151   2.402       .  S
Zr147       O154   2.390       .  S
Zr148       O174   2.436       .  S
Zr148       O175   2.436       .  S
Zr148       O150   2.438       .  S
Zr148       O151   2.387       .  S
Zr148       O152   2.410       .  S
O149        H186   0.990       .  S
O150        H181   0.990       .  S
O150        H195   0.990       .  S
O152        H178   0.966       .  S
O153       Zr163   2.367       .  S
O154       Zr163   2.380       .  S
O154        H179   0.965       .  S
C155       C1437   1.474       .  S
C156       C1574   1.504       .  S
C157       C1510   1.463       .  S
O158        H194   0.990       .  S
O159        C161   1.282       .  A
O160        C161   1.287       .  A
C161       C1469   1.487       .  S
O162       Zr163   2.438       .  S
O162        H191   0.991       .  S
Zr163       O166   2.436       .  S
Zr163       O167   2.438       .  S
Zr163       O168   2.438       .  S
O164        C169   1.284       .  A
O165        H182   0.990       .  S
O165        H197   0.990       .  S
O166        H183   0.990       .  S
O167        H187   0.990       .  S
O167        H196   0.990       .  S
O168        C169   1.284       .  A
C169       C1542   1.482       .  S
O170        H189   0.990       .  S
O170        H193   0.990       .  S
O171        H185   0.990       .  S
O171        H192   0.990       .  S
O172        C176   1.279       .  A
O173        C176   1.304       .  A
O174        H184   0.990       .  S
O175        H188   0.990       .  S
C176       C1597   1.497       .  S
Zr199       O200   2.443   1_455  S
Zr199       O201   2.444       .  S
Zr199       O202   2.447   1_455  S
Zr199       O205   2.401       .  S
Zr199       O207   2.372       .  S
Zr199       O208   2.391       .  S
Zr199       O209   2.410       .  S
Zr199       O210   2.403       .  S
O200        H256   0.990       .  S
O200        H264   0.991       .  S
O201        C221   1.285       .  A
O202        C223   1.283       .  A
O203       Zr213   2.505       .  S
O203        C222   1.299       .  A
O204       Zr212   2.405   1_655  S
O204        C223   1.279       .  A
O205        C222   1.278       .  A
O206       Zr214   2.426       .  S
O206        C221   1.281       .  A
O207       Zr212   2.403       .  S
O207       Zr214   2.380       .  S
O208       Zr213   2.400       .  S
O208       Zr214   2.388       .  S
O208        H243   0.965       .  S
O209       Zr212   2.399       .  S
O209       Zr229   2.408       .  S
O209        H246   0.965       .  S
O210       Zr213   2.391       .  S
O210       Zr229   2.382       .  S
Zr211       O236   2.444       .  S
Zr211       O230   2.421       .  S
Zr211       O238   2.400       .  S
Zr211       O226   2.444       .  S
Zr211       O217   2.399       .  S
Zr211       O218   2.397       .  S
Zr211       O219   2.361       .  S
Zr211       O220   2.395       .  S
Zr212       O231   2.440       .  S
Zr212       O224   2.434       .  S
Zr212       O225   2.430       .  S
Zr212       O218   2.387       .  S
Zr212       O219   2.376       .  S
Zr213       O215   2.435       .  S
Zr213       O237   2.434       .  S
Zr213       O239   2.511       .  S
Zr213       O217   2.394       .  S
Zr213       O220   2.386       .  S
Zr214       O240   2.437       .  S
Zr214       O241   2.436       .  S
Zr214       O216   2.437       .  S
Zr214       O217   2.388       .  S
Zr214       O218   2.414       .  S
O215        H252   0.990       .  S
O216        H247   0.990       .  S
O216        H261   0.990       .  S
O218        H244   0.965       .  S
O219       Zr229   2.363       .  S
O220       Zr229   2.385       .  S
O220        H245   0.965       .  S
C221       C1318   1.492   1_455  S
C222       C1341   1.487       .  S
C223       C1501   1.469       .  S
O224        H260   0.990       .  S
O225        C227   1.283       .  A
O226        C227   1.287       .  A
C227       C1405   1.498       .  S
O228       Zr229   2.436       .  S
O228        H257   0.991       .  S
Zr229       O232   2.435       .  S
Zr229       O233   2.437       .  S
Zr229       O234   2.434       .  S
O230        C235   1.284       .  A
O231        H248   0.990       .  S
O231        H263   0.990       .  S
O232        H249   0.990       .  S
O233        H253   0.990       .  S
O233        H262   0.990       .  S
O234        C235   1.284       .  A
C235       C1533   1.483       .  S
O236        H255   0.990       .  S
O236        H259   0.990       .  S
O237        H251   0.990       .  S
O237        H258   0.990       .  S
O238        C242   1.280       .  A
O239        C242   1.301       .  A
O240        H250   0.990       .  S
O241        H254   0.990       .  S
C242       C1382   1.494       .  S
Zr265       O266   2.442   1_545  S
Zr265       O267   2.433   1_545  S
Zr265       O268   2.447   1_545  S
Zr265       O271   2.394       .  S
Zr265       O273   2.373       .  S
Zr265       O274   2.395       .  S
Zr265       O275   2.406       .  S
Zr265       O276   2.403       .  S
O266        H322   0.990       .  S
O266        H330   0.991       .  S
O267        C287   1.282       .  A
O268        C289   1.283       .  A
O269       Zr279   2.520       .  S
O269        C288   1.302       .  A
O270       Zr278   2.395   1_565  S
O270        C289   1.277       .  A
O271        C288   1.276       .  A
O272       Zr280   2.440       .  S
O272        C287   1.285   1_545  A
O273       Zr278   2.398       .  S
O273       Zr280   2.380       .  S
O274       Zr279   2.398       .  S
O274       Zr280   2.390       .  S
O274        H309   0.966       .  S
O275       Zr278   2.398       .  S
O275       Zr295   2.414       .  S
O275        H312   0.966       .  S
O276       Zr279   2.390       .  S
O276       Zr295   2.381       .  S
Zr277       O302   2.439       .  S
Zr277       O296   2.419       .  S
Zr277       O304   2.397       .  S
Zr277       O292   2.460       .  S
Zr277       O283   2.404       .  S
Zr277       O284   2.400       .  S
Zr277       O285   2.358       .  S
Zr277       O286   2.400       .  S
Zr278       O297   2.441       .  S
Zr278       O290   2.435       .  S
Zr278       O291   2.409       .  S
Zr278       O284   2.387       .  S
Zr278       O285   2.378       .  S
Zr279       O281   2.437       .  S
Zr279       O303   2.435       .  S
Zr279       O305   2.511       .  S
Zr279       O283   2.397       .  S
Zr279       O286   2.393       .  S
Zr280       O306   2.435       .  S
Zr280       O307   2.438       .  S
Zr280       O282   2.438       .  S
Zr280       O283   2.386       .  S
Zr280       O284   2.423       .  S
O281        H318   0.990       .  S
O282        H313   0.990       .  S
O282        H327   0.990       .  S
O284        H310   0.965       .  S
O285       Zr295   2.365       .  S
O286       Zr295   2.384       .  S
O286        H311   0.965       .  S
C287       C1478   1.495       .  S
C288       C1373   1.493       .  S
C289       C1245   1.469       .  S
O290        H326   0.990       .  S
O291        C293   1.278       .  A
O292        C293   1.289       .  A
C293       C1766   1.498       .  S
O294       Zr295   2.434       .  S
O294        H323   0.990       .  S
Zr295       O298   2.434       .  S
Zr295       O299   2.436       .  S
Zr295       O300   2.435       .  S
O296        C301   1.283       .  A
O297        H314   0.990       .  S
O297        H329   0.990       .  S
O298        H315   0.990       .  S
O299        H319   0.990       .  S
O299        H328   0.990       .  S
O300        C301   1.283       .  A
C301       C1277   1.486       .  S
O302        H321   0.990       .  S
O302        H325   0.990       .  S
O303        H317   0.990       .  S
O303        H324   0.990       .  S
O304        C308   1.280       .  A
O305        C308   1.300       .  A
O306        H316   0.990       .  S
O307        H320   0.990       .  S
C308       C1350   1.489       .  S
Zr331       O332   2.446       .  S
Zr331       O333   2.457       .  S
Zr331       O334   2.451       .  S
Zr331       O337   2.395       .  S
Zr331       O339   2.377       .  S
Zr331       O340   2.394       .  S
Zr331       O341   2.416       .  S
Zr331       O342   2.405       .  S
O332        H388   0.990       .  S
O332        H396   0.991       .  S
O333        C353   1.286       .  A
O334        C355   1.283       .  A
O335       Zr345   2.518       .  S
O335        C354   1.301       .  A
O336       Zr344   2.406       .  S
O336        C355   1.277       .  A
O337        C354   1.276       .  A
O338       Zr346   2.405       .  S
O338        C353   1.279       .  A
O339       Zr344   2.396       .  S
O339       Zr346   2.386       .  S
O340       Zr345   2.403       .  S
O340       Zr346   2.392       .  S
O340        H375   0.973       .  S
O341       Zr344   2.402       .  S
O341       Zr361   2.404       .  S
O341        H378   0.964       .  S
O342       Zr345   2.389       .  S
O342       Zr361   2.383       .  S
Zr343       O368   2.440       .  S
Zr343       O362   2.406       .  S
Zr343       O370   2.393       .  S
Zr343       O358   2.433       .  S
Zr343       O349   2.394       .  S
Zr343       O350   2.391       .  S
Zr343       O351   2.366       .  S
Zr343       O352   2.391       .  S
Zr344       O363   2.444       .  S
Zr344       O356   2.434       .  S
Zr344       O357   2.424       .  S
Zr344       O350   2.383       .  S
Zr344       O351   2.384       .  S
Zr345       O347   2.436       .  S
Zr345       O369   2.437   1_554  S
Zr345       O371   2.516       .  S
Zr345       O349   2.400       .  S
Zr345       O352   2.388       .  S
Zr346       O372   2.436       .  S
Zr346       O373   2.435       .  S
Zr346       O348   2.437       .  S
Zr346       O349   2.385       .  S
Zr346       O350   2.401       .  S
O347        H384   0.990       .  S
O348        H379   0.990       .  S
O348        H393   0.990       .  S
O350        H376   0.966       .  S
O351       Zr361   2.366       .  S
O352       Zr361   2.378       .  S
O352        H377   0.966       .  S
C353       C1725   1.497   1_554  S
C354       C1926   1.490       .  S
C355       C1254   1.466       .  S
O356        H392   0.990       .  S
O357        C359   1.283       .  A
O358        C359   1.285       .  A
C359       C1309   1.482       .  S
O360       Zr361   2.439       .  S
O360        H389   0.990       .  S
Zr361       O364   2.435       .  S
Zr361       O365   2.437       .  S
Zr361       O366   2.437       .  S
O362        C367   1.281       .  A
O363        H380   0.990       .  S
O363        H395   0.990       .  S
O364        H381   0.990       .  S
O365        H385   0.990       .  S
O365        H394   0.989       .  S
O366        C367   1.284       .  A
C367       C1286   1.476       .  S
O368        H387   0.990       .  S
O368        H391   0.990       .  S
O369        H383   0.989       .  S
O369        H390   0.991       .  S
O370        C374   1.277       .  A
O371        C374   1.302       .  A
O372        H382   0.990       .  S
O373        H386   0.990       .  S
C374       C1894   1.494       .  S
Zr397       O398   2.443       .  S
Zr397       O399   2.433       .  S
Zr397       O400   2.450       .  S
Zr397       O403   2.395       .  S
Zr397       O405   2.374       .  S
Zr397       O406   2.393       .  S
Zr397       O407   2.403       .  S
Zr397       O408   2.402       .  S
O398        H454   0.990       .  S
O398        H462   0.991       .  S
O399        C419   1.281       .  A
O400        C421   1.283       .  A
O401       Zr411   2.511       .  S
O401        C420   1.300       .  A
O402       Zr410   2.406       .  S
O402        C421   1.277       .  A
O403        C420   1.276       .  A
O404       Zr412   2.440       .  S
O404        C419   1.285       .  A
O405       Zr410   2.400       .  S
O405       Zr412   2.382       .  S
O406       Zr411   2.398       .  S
O406       Zr412   2.384       .  S
O406        H441   0.964       .  S
O407       Zr410   2.398       .  S
O407       Zr427   2.405       .  S
O407        H444   0.966       .  S
O408       Zr411   2.395       .  S
O408       Zr427   2.382       .  S
Zr409       O434   2.445       .  S
Zr409       O428   2.429       .  S
Zr409       O436   2.392       .  S
Zr409       O424   2.448       .  S
Zr409       O415   2.409       .  S
Zr409       O416   2.398       .  S
Zr409       O417   2.361       .  S
Zr409       O418   2.390       .  S
Zr410       O429   2.441       .  S
Zr410       O422   2.436       .  S
Zr410       O423   2.419       .  S
Zr410       O416   2.385       .  S
Zr410       O417   2.381       .  S
Zr411       O413   2.435       .  S
Zr411       O435   2.437       .  S
Zr411       O437   2.512       .  S
Zr411       O415   2.401       .  S
Zr411       O418   2.386       .  S
Zr412       O438   2.437       .  S
Zr412       O439   2.435       .  S
Zr412       O414   2.437       .  S
Zr412       O415   2.394       .  S
Zr412       O416   2.414       .  S
O413        H450   0.990       .  S
O414        H445   0.990       .  S
O414        H459   0.990       .  S
O416        H442   0.966       .  S
O417       Zr427   2.367       .  S
O418       Zr427   2.380       .  S
O418        H443   0.965       .  S
C419       C1798   1.497       .  S
C420       C1702   1.490       .  S
C421       C1181   1.469       .  S
O422        H458   0.990       .  S
O423        C425   1.281       .  A
O424        C425   1.287       .  A
C425       C1158   1.491       .  S
O426       Zr427   2.438       .  S
O426        H455   0.990       .  S
Zr427       O430   2.436       .  S
Zr427       O431   2.439       .  S
Zr427       O432   2.432       .  S
O428        C433   1.283       .  A
O429        H446   0.990       .  S
O429        H461   0.990       .  S
O430        H447   0.990       .  S
O431        H451   0.990       .  S
O431        H460   0.990       .  S
O432        C433   1.285       .  A
C433       C1222   1.491       .  S
O434        H453   0.989       .  S
O434        H457   0.990       .  S
O435        H449   0.990       .  S
O435        H456   0.990       .  S
O436        C440   1.278       .  A
O437        C440   1.300       .  A
O438        H448   0.990       .  S
O439        H452   0.990       .  S
C440       C1670   1.495       .  S
Zr463       O464   2.444       .  S
Zr463       O465   2.460       .  S
Zr463       O466   2.456       .  S
Zr463       O469   2.399       .  S
Zr463       O471   2.375   1_455  S
Zr463       O472   2.393   1_455  S
Zr463       O473   2.413   1_455  S
Zr463       O474   2.409   1_455  S
O464        H520   0.990       .  S
O464        H528   0.990       .  S
O465        C485   1.288       .  A
O466        C487   1.284       .  A
O467       Zr477   2.527       .  S
O467        C486   1.303       .  A
O468       Zr476   2.403   1_455  S
O468        C487   1.279       .  A
O469        C486   1.277   1_455  A
O470       Zr478   2.423       .  S
O470        C485   1.281   1_655  A
O471       Zr476   2.402       .  S
O471       Zr478   2.382       .  S
O472       Zr477   2.395       .  S
O472       Zr478   2.391       .  S
O472        H507   0.965       .  S
O473       Zr476   2.403       .  S
O473       Zr493   2.413       .  S
O473        H510   0.967       .  S
O474       Zr477   2.397       .  S
O474       Zr493   2.388       .  S
Zr475       O500   2.447       .  S
Zr475       O494   2.407       .  S
Zr475       O502   2.394       .  S
Zr475       O490   2.434       .  S
Zr475       O481   2.402       .  S
Zr475       O482   2.396       .  S
Zr475       O483   2.365       .  S
Zr475       O484   2.394       .  S
Zr476       O495   2.438       .  S
Zr476       O488   2.436       .  S
Zr476       O489   2.440       .  S
Zr476       O482   2.387       .  S
Zr476       O483   2.381       .  S
Zr477       O479   2.436       .  S
Zr477       O501   2.436       .  S
Zr477       O503   2.517       .  S
Zr477       O481   2.406       .  S
Zr477       O484   2.391       .  S
Zr478       O504   2.437       .  S
Zr478       O505   2.437       .  S
Zr478       O480   2.437       .  S
Zr478       O481   2.391       .  S
Zr478       O482   2.411       .  S
O479        H516   0.990       .  S
O480        H511   0.990       .  S
O480        H525   0.990       .  S
O482        H508   0.965       .  S
O483       Zr493   2.364       .  S
O484       Zr493   2.380       .  S
O484        H509   0.965       .  S
C485       C1053   1.495       .  S
C486       C1094   1.497       .  S
C487       C1190   1.477       .  S
O488        H524   0.990       .  S
O489        C491   1.285       .  A
O490        C491   1.283       .  A
C491       C1638   1.501       .  S
O492       Zr493   2.435       .  S
O492        H521   0.990       .  S
Zr493       O496   2.435       .  S
Zr493       O497   2.435       .  S
Zr493       O498   2.446       .  S
O494        C499   1.278       .  A
O495        H512   0.990       .  S
O495        H527   0.990       .  S
O496        H513   0.990       .  S
O497        H517   0.990       .  S
O497        H526   0.990       .  S
O498        C499   1.286       .  A
C499       C1213   1.485       .  S
O500        H519   0.990       .  S
O500        H523   0.990       .  S
O501        H515   0.990       .  S
O501        H522   0.990       .  S
O502        C506   1.278       .  A
O503        C506   1.302       .  A
O504        H514   0.990       .  S
O505        H518   0.990       .  S
C506       C1117   1.494       .  S
Zr529       O530   2.446       .  S
Zr529       O531   2.447       .  S
Zr529       O532   2.449       .  S
Zr529       O535   2.397       .  S
Zr529       O537   2.373   1_455  S
Zr529       O538   2.395   1_455  S
Zr529       O539   2.412   1_455  S
Zr529       O540   2.410   1_455  S
O530        H586   0.991       .  S
O530        H594   0.991       .  S
O531        C551   1.286       .  A
O532        C553   1.282       .  A
O533       Zr543   2.524       .  S
O533        C552   1.302       .  A
O534       Zr542   2.389   1_455  S
O534        C553   1.275       .  A
O535        C552   1.276   1_455  A
O536       Zr544   2.417       .  S
O536        C551   1.280   1_655  A
O537       Zr542   2.399       .  S
O537       Zr544   2.380       .  S
O538       Zr543   2.398       .  S
O538       Zr544   2.392       .  S
O538        H573   0.966       .  S
O539       Zr542   2.400       .  S
O539       Zr559   2.413       .  S
O539        H576   0.964   1_655  S
O540       Zr543   2.395       .  S
O540       Zr559   2.384       .  S
Zr541       O566   2.439       .  S
Zr541       O560   2.412       .  S
Zr541       O568   2.376       .  S
Zr541       O556   2.438       .  S
Zr541       O547   2.402       .  S
Zr541       O548   2.390       .  S
Zr541       O549   2.359       .  S
Zr541       O550   2.392       .  S
Zr542       O561   2.441       .  S
Zr542       O554   2.436       .  S
Zr542       O555   2.421       .  S
Zr542       O548   2.390       .  S
Zr542       O549   2.381       .  S
Zr543       O545   2.435       .  S
Zr543       O567   2.436       .  S
Zr543       O569   2.528       .  S
Zr543       O547   2.401       .  S
Zr543       O550   2.382       .  S
Zr544       O570   2.435       .  S
Zr544       O571   2.436       .  S
Zr544       O546   2.437       .  S
Zr544       O547   2.389       .  S
Zr544       O548   2.406       .  S
O545        H582   0.990       .  S
O546        H577   0.990       .  S
O546        H591   0.990   1_655  S
O548        H574   0.967       .  S
O549       Zr559   2.365       .  S
O550       Zr559   2.379       .  S
O550        H575   0.965       .  S
C551        C893   1.490       .  S
C552        C998   1.494       .  S
C553        C925   1.463       .  S
O554        H590   0.990       .  S
O555        C557   1.281       .  A
O556        C557   1.284       .  A
C557       C1446   1.470       .  S
O558       Zr559   2.435       .  S
O558        H587   0.990   1_655  S
Zr559       O562   2.436       .  S
Zr559       O563   2.436       .  S
Zr559       O564   2.434       .  S
O560        C565   1.280       .  A
O561        H578   0.991   1_655  S
O561        H593   0.990   1_655  S
O562        H579   0.990       .  S
O563        H583   0.990       .  S
O563        H592   0.990       .  S
O564        C565   1.284       .  A
C565        C957   1.473       .  S
O566        H585   0.990       .  S
O566        H589   0.990       .  S
O567        H581   0.990       .  S
O567        H588   0.990       .  S
O568        C572   1.276       .  A
O569        C572   1.304       .  A
O570        H580   0.990       .  S
O571        H584   0.990       .  S
C572       C1030   1.501       .  S
Zr595       O596   2.446   1_545  S
Zr595       O597   2.448   1_545  S
Zr595       O598   2.441   1_545  S
Zr595       O601   2.399       .  S
Zr595       O603   2.379       .  S
Zr595       O604   2.393       .  S
Zr595       O605   2.416       .  S
Zr595       O606   2.407       .  S
O596        H652   0.990       .  S
O596        H660   0.991       .  S
O597        C617   1.285       .  A
O598        C619   1.281       .  A
O599       Zr609   2.533       .  S
O599        C618   1.304       .  A
O600       Zr608   2.405   1_565  S
O600        C619   1.277       .  A
O601        C618   1.277       .  A
O602       Zr610   2.429       .  S
O602        C617   1.283   1_545  A
O603       Zr608   2.406       .  S
O603       Zr610   2.386       .  S
O604       Zr609   2.397       .  S
O604       Zr610   2.391       .  S
O604        H639   0.964       .  S
O605       Zr608   2.398       .  S
O605       Zr625   2.409       .  S
O605        H642   0.964       .  S
O606       Zr609   2.395       .  S
O606       Zr625   2.382       .  S
Zr607       O632   2.441       .  S
Zr607       O626   2.417       .  S
Zr607       O634   2.383       .  S
Zr607       O622   2.441       .  S
Zr607       O613   2.405       .  S
Zr607       O614   2.394       .  S
Zr607       O615   2.362       .  S
Zr607       O616   2.396       .  S
Zr608       O627   2.441       .  S
Zr608       O620   2.435       .  S
Zr608       O621   2.436       .  S
Zr608       O614   2.382       .  S
Zr608       O615   2.378       .  S
Zr609       O611   2.435       .  S
Zr609       O633   2.436       .  S
Zr609       O635   2.534       .  S
Zr609       O613   2.403       .  S
Zr609       O616   2.380       .  S
Zr610       O636   2.436       .  S
Zr610       O637   2.435       .  S
Zr610       O612   2.436       .  S
Zr610       O613   2.393       .  S
Zr610       O614   2.411       .  S
O611        H648   0.990       .  S
O612        H643   0.990       .  S
O612        H657   0.990       .  S
O614        H640   0.966       .  S
O615       Zr625   2.363       .  S
O616       Zr625   2.382       .  S
O616        H641   0.963       .  S
C617       C1414   1.487       .  S
C618       C1606   1.497       .  S
C619        C934   1.463       .  S
O620        H656   0.990   1_545  S
O621        C623   1.285       .  A
O622        C623   1.285       .  A
C623        C861   1.495       .  S
O624       Zr625   2.436       .  S
O624        H653   0.990       .  S
Zr625       O628   2.435       .  S
Zr625       O629   2.433       .  S
Zr625       O630   2.437       .  S
O626        C631   1.281       .  A
O627        H644   0.990   1_545  S
O627        H659   0.990       .  S
O628        H645   0.990       .  S
O629        H649   0.990       .  S
O629        H658   0.990       .  S
O630        C631   1.285       .  A
C631        C966   1.467       .  S
O632        H651   0.990       .  S
O632        H655   0.990       .  S
O633        H647   0.990       .  S
O633        H654   0.990       .  S
O634        C638   1.277       .  A
O635        C638   1.305       .  A
O636        H646   0.990       .  S
O637        H650   0.990       .  S
C638       C1565   1.509       .  S
Zr661       O662   2.446   1_565  S
Zr661       O663   2.456   1_565  S
Zr661       O664   2.441   1_565  S
Zr661       O667   2.403       .  S
Zr661       O669   2.382       .  S
Zr661       O670   2.388       .  S
Zr661       O671   2.420       .  S
Zr661       O672   2.403       .  S
O662        H718   0.990       .  S
O662        H726   0.991       .  S
O663        C683   1.286       .  A
O664        C685   1.281       .  A
O665       Zr675   2.510       .  S
O665        C684   1.299       .  A
O666       Zr674   2.416   1_545  S
O666        C685   1.279       .  A
O667        C684   1.278       .  A
O668       Zr676   2.413       .  S
O668        C683   1.280   1_565  A
O669       Zr674   2.399       .  S
O669       Zr676   2.386       .  S
O670       Zr675   2.397       .  S
O670       Zr676   2.392       .  S
O670        H705   0.965       .  S
O671       Zr674   2.405       .  S
O671       Zr691   2.408       .  S
O671        H708   0.965       .  S
O672       Zr675   2.393       .  S
O672       Zr691   2.388       .  S
Zr673       O698   2.438       .  S
Zr673       O692   2.404       .  S
Zr673       O700   2.400       .  S
Zr673       O688   2.438       .  S
Zr673       O679   2.393       .  S
Zr673       O680   2.400       .  S
Zr673       O681   2.368       .  S
Zr673       O682   2.396       .  S
Zr674       O693   2.442       .  S
Zr674       O686   2.434       .  S
Zr674       O687   2.431       .  S
Zr674       O680   2.389       .  S
Zr674       O681   2.381       .  S
Zr675       O677   2.436       .  S
Zr675       O699   2.437       .  S
Zr675       O701   2.509       .  S
Zr675       O679   2.399       .  S
Zr675       O682   2.391       .  S
Zr676       O702   2.434       .  S
Zr676       O703   2.435       .  S
Zr676       O678   2.438       .  S
Zr676       O679   2.383       .  S
Zr676       O680   2.409       .  S
O677        H714   0.990       .  S
O678        H709   0.991       .  S
O678        H723   0.990       .  S
O680        H706   0.966       .  S
O681       Zr691   2.360       .  S
O682       Zr691   2.383       .  S
O682        H707   0.965       .  S
C683       C1149   1.484       .  S
C684       C1126   1.492       .  S
C685        C797   1.471       .  S
O686        H722   0.990       .  S
O687        C689   1.284       .  A
O688        C689   1.284       .  A
C689        C902   1.486       .  S
O690       Zr691   2.435       .  S
O690        H719   0.990       .  S
Zr691       O694   2.435       .  S
Zr691       O695   2.436       .  S
Zr691       O696   2.442       .  S
O692        C697   1.278       .  A
O693        H710   0.990       .  S
O693        H725   0.990       .  S
O694        H711   0.990       .  S
O695        H715   0.990       .  S
O695        H724   0.990       .  S
O696        C697   1.286       .  A
C697        C829   1.478       .  S
O698        H717   0.990       .  S
O698        H721   0.990       .  S
O699        H713   0.990       .  S
O699        H720   0.990       .  S
O700        C704   1.279       .  A
O701        C704   1.300       .  A
O702        H712   0.990       .  S
O703        H716   0.990       .  S
C704       C1085   1.492       .  S
Zr727       O728   2.445       .  S
Zr727       O729   2.460       .  S
Zr727       O730   2.454       .  S
Zr727       O733   2.385       .  S
Zr727       O735   2.368       .  S
Zr727       O736   2.396       .  S
Zr727       O737   2.406       .  S
Zr727       O738   2.412       .  S
O728        H784   0.991       .  S
O728        H792   0.991       .  S
O729        C749   1.289       .  A
O730        C751   1.284       .  A
O731       Zr741   2.526       .  S
O731        C750   1.302       .  A
O732       Zr740   2.407       .  S
O732        C751   1.278       .  A
O733        C750   1.276       .  A
O734       Zr742   2.425       .  S
O734        C749   1.280       .  A
O735       Zr740   2.398       .  S
O735       Zr742   2.380       .  S
O736       Zr741   2.405       .  S
O736       Zr742   2.391       .  S
O736        H771   0.966       .  S
O737       Zr740   2.393       .  S
O737       Zr757   2.414       .  S
O737        H774   0.966       .  S
O738       Zr741   2.398       .  S
O738       Zr757   2.388       .  S
Zr739       O764   2.439       .  S
Zr739       O758   2.406       .  S
Zr739       O766   2.393       .  S
Zr739       O754   2.440       .  S
Zr739       O745   2.398       .  S
Zr739       O746   2.391       .  S
Zr739       O747   2.366       .  S
Zr739       O748   2.393       .  S
Zr740       O759   2.440       .  S
Zr740       O752   2.435       .  S
Zr740       O753   2.415       .  S
Zr740       O746   2.390       .  S
Zr740       O747   2.381       .  S
Zr741       O743   2.437       .  S
Zr741       O765   2.435       .  S
Zr741       O767   2.532       .  S
Zr741       O745   2.400       .  S
Zr741       O748   2.392       .  S
Zr742       O768   2.434       .  S
Zr742       O769   2.435       .  S
Zr742       O744   2.437       .  S
Zr742       O745   2.391       .  S
Zr742       O746   2.401       .  S
O743        H780   0.990       .  S
O744        H775   0.990       .  S
O744        H789   0.990       .  S
O746        H772   0.966       .  S
O747       Zr757   2.365       .  S
O748       Zr757   2.382       .  S
O748        H773   0.966       .  S
C749        C870   1.507       .  S
C750       C1021   1.497       .  S
C751        C806   1.476       .  S
O752        H788   0.990       .  S
O753        C755   1.283       .  A
O754        C755   1.284       .  A
C755       C1062   1.489       .  S
O756       Zr757   2.436       .  S
O756        H785   0.990       .  S
Zr757       O760   2.434       .  S
Zr757       O761   2.437       .  S
Zr757       O762   2.440       .  S
O758        C763   1.278       .  A
O759        H776   0.990       .  S
O759        H791   0.990       .  S
O760        H777   0.990       .  S
O761        H781   0.990       .  S
O761        H790   0.990       .  S
O762        C763   1.286       .  A
C763        C838   1.479       .  S
O764        H783   0.990       .  S
O764        H787   0.990       .  S
O765        H779   0.990       .  S
O765        H786   0.990       .  S
O766        C770   1.278       .  A
O767        C770   1.305       .  A
O768        H778   0.990       .  S
O769        H782   0.991       .  S
C770        C989   1.503       .  S
C793        C794   1.402       .  A
C793        C798   1.408       .  A
C793        H803   1.084       .  S
C794        C799   1.479       .  S
C794        C795   1.412       .  A
C795        C796   1.396       .  A
C795        C800   1.509       .  S
C796        C797   1.400       .  A
C796        H801   1.085       .  S
C797        C798   1.418       .  A
C798        C802   1.508       .  S
C799        C804   1.408       .  A
C799        C808   1.402       .  A
C800        H816   1.110       .  S
C800        H817   1.109       .  S
C800        H818   1.111       .  S
C802        H813   1.110       .  S
C802        H814   1.110       .  S
C802        H815   1.106       .  S
C804        C805   1.403       .  A
C804        C809   1.507       .  S
C805        C806   1.407       .  A
C805        H810   1.084       .  S
C806        C807   1.416       .  A
C807        C808   1.404       .  A
C807        C811   1.508       .  S
C808        H812   1.085       .  S
C809        H819   1.111       .  S
C809        H820   1.110       .  S
C809        H821   1.110       .  S
C811        H822   1.110       .  S
C811        H823   1.105       .  S
C811        H824   1.111       .  S
C825        C826   1.399       .  A
C825        C830   1.400       .  A
C825        H835   1.084       .  S
C826        C831   1.476       .  S
C826        C827   1.410       .  A
C827        C828   1.401       .  A
C827        C832   1.506       .  S
C828        C829   1.404       .  A
C828        H833   1.084       .  S
C829        C830   1.420       .  A
C830        C834   1.510       .  S
C831        C836   1.411       .  A
C831        C840   1.399       .  A
C832        H848   1.110       .  S
C832        H849   1.110       .  S
C832        H850   1.111       .  S
C834        H845   1.110       .  S
C834        H846   1.111       .  S
C834        H847   1.110       .  S
C836        C837   1.400       .  A
C836        C841   1.507       .  S
C837        C838   1.404       .  A
C837        H842   1.084       .  S
C838        C839   1.421       .  A
C839        C840   1.402       .  A
C839        C843   1.510       .  S
C840        H844   1.084       .  S
C841        H851   1.111       .  S
C841        H852   1.110       .  S
C841        H853   1.110       .  S
C843        H854   1.110       .  S
C843        H855   1.110       .  S
C843        H856   1.111       .  S
C857        C858   1.403       .  A
C857        C862   1.408       .  A
C857        H867   1.084       .  S
C858        C863   1.490       .  S
C858        C859   1.409       .  A
C859        C860   1.406       .  A
C859        C864   1.506       .  S
C860        C861   1.410       .  A
C860        H865   1.084       .  S
C861        C862   1.420       .  A
C862        C866   1.507       .  S
C863        C868   1.409       .  A
C863        C872   1.400       .  A
C864        H880   1.110       .  S
C864        H881   1.110       .  S
C864        H882   1.111       .  S
C866        H877   1.109       .  S
C866        H878   1.111       .  S
C866        H879   1.110       .  S
C868        C869   1.406       .  A
C868        C873   1.507       .  S
C869        C870   1.410       .  A
C869        H874   1.080       .  S
C870        C871   1.428       .  A
C871        C872   1.410       .  A
C871        C875   1.509       .  S
C872        H876   1.084       .  S
C873        H883   1.111       .  S
C873        H884   1.110       .  S
C873        H885   1.110       .  S
C875        H886   1.111       .  S
C875        H887   1.109       .  S
C875        H888   1.111       .  S
C889        C890   1.400       .  A
C889        C894   1.405       .  A
C889        H899   1.084       .  S
C890        C895   1.484       .  S
C890        C891   1.410       .  A
C891        C892   1.404       .  A
C891        C896   1.507       .  S
C892        C893   1.408       .  A
C892        H897   1.084       .  S
C893        C894   1.421       .  A
C894        C898   1.508       .  S
C895        C900   1.410       .  A
C895        C904   1.403       .  A
C896        H912   1.110       .  S
C896        H913   1.110       .  S
C896        H914   1.111       .  S
C898        H909   1.111       .  S
C898        H910   1.109   1_455  S
C898        H911   1.110       .  S
C900        C901   1.403       .  A
C900        C905   1.507       .  S
C901        C902   1.407       .  A
C901        H906   1.084       .  S
C902        C903   1.416       .  A
C903        C904   1.407       .  A
C903        C907   1.506       .  S
C904        H908   1.084       .  S
C905        H915   1.111       .  S
C905        H916   1.110       .  S
C905        H917   1.110       .  S
C907        H918   1.111       .  S
C907        H919   1.111       .  S
C907        H920   1.108       .  S
C921        C922   1.401       .  A
C921        C926   1.398       .  A
C921        H931   1.084       .  S
C922        C927   1.474       .  S
C922        C923   1.408       .  A
C923        C924   1.404       .  A
C923        C928   1.505       .  S
C924        C925   1.404       .  A
C924        H929   1.084       .  S
C925        C926   1.410       .  A
C926        C930   1.508       .  S
C927        C932   1.412       .  A
C927        C936   1.399       .  A
C928        H944   1.110       .  S
C928        H945   1.110       .  S
C928        H946   1.111       .  S
C930        H941   1.110       .  S
C930        H942   1.111       .  S
C930        H943   1.110       .  S
C932        C933   1.399       .  A
C932        C937   1.508       .  S
C933        C934   1.399       .  A
C933        H938   1.085       .  S
C934        C935   1.415       .  A
C935        C936   1.402       .  A
C935        C939   1.507       .  S
C936        H940   1.084       .  S
C937        H947   1.111       .  S
C937        H948   1.110       .  S
C937        H949   1.110       .  S
C939        H950   1.110       .  S
C939        H951   1.107       .  S
C939        H952   1.110       .  S
C953        C954   1.399       .  A
C953        C958   1.400       .  A
C953        H963   1.085       .  S
C954        C959   1.474       .  S
C954        C955   1.409       .  A
C955        C956   1.399       .  A
C955        C960   1.508       .  S
C956        C957   1.406       .  A
C956        H961   1.084       .  S
C957        C958   1.417       .  A
C958        C962   1.507       .  S
C959        C964   1.412       .  A
C959        C968   1.398       .  A
C960        H976   1.109       .  S
C960        H977   1.111       .  S
C960        H978   1.111       .  S
C962        H973   1.110       .  S
C962        H974   1.111       .  S
C962        H975   1.105       .  S
C964        C965   1.402       .  A
C964        C969   1.506       .  S
C965        C966   1.401       .  A
C965        H970   1.084       .  S
C966        C967   1.415       .  A
C967        C968   1.397       .  A
C967        C971   1.507       .  S
C968        H972   1.084       .  S
C969        H979   1.111       .  S
C969        H980   1.109       .  S
C969        H981   1.110       .  S
C971        H982   1.111       .  S
C971        H983   1.110       .  S
C971        H984   1.106       .  S
C985        C986   1.411       .  A
C985        C990   1.419       .  A
C985        H995   1.084       .  S
C986        C991   1.514       .  S
C986        C987   1.414       .  A
C987        C988   1.413       .  A
C987        C992   1.507       .  S
C988        C989   1.411       .  A
C988        H993   1.084       .  S
C989        C990   1.418       .  A
C990        C994   1.505       .  S
C991        C996   1.419       .  A
C991       C1000   1.407       .  A
C992       H1008   1.109       .  S
C992       H1009   1.110       .  S
C992       H1010   1.111       .  S
C994       H1005   1.111       .  S
C994       H1006   1.110       .  S
C994       H1007   1.108       .  S
C996        C997   1.415       .  A
C996       C1001   1.506       .  S
C997        C998   1.407   1_455  A
C997       H1002   1.084       .  S
C998        C999   1.418   1_655  A
C999       C1000   1.413       .  A
C999       C1003   1.505   1_455  S
C1000      H1004   1.084       .  S
C1001      H1011   1.111       .  S
C1001      H1012   1.109       .  S
C1001      H1013   1.110       .  S
C1003      H1014   1.110       .  S
C1003      H1015   1.107       .  S
C1003      H1016   1.110       .  S
C1017      C1018   1.400       .  A
C1017      C1022   1.405       .  A
C1017      H1027   1.085       .  S
C1018      C1023   1.506       .  S
C1018      C1019   1.420       .  A
C1019      C1020   1.422       .  A
C1019      C1024   1.506       .  S
C1020      C1021   1.409       .  A
C1020      H1025   1.083       .  S
C1021      C1022   1.421       .  A
C1022      C1026   1.506       .  S
C1023      C1028   1.421       .  A
C1023      C1032   1.400       .  A
C1024      H1040   1.111       .  S
C1024      H1041   1.106       .  S
C1024      H1042   1.110       .  S
C1026      H1037   1.109       .  S
C1026      H1038   1.110       .  S
C1026      H1039   1.109       .  S
C1028      C1029   1.419       .  A
C1028      C1033   1.506       .  S
C1029      C1030   1.406       .  A
C1029      H1034   1.084       .  S
C1030      C1031   1.426       .  A
C1031      C1032   1.406       .  A
C1031      C1035   1.511       .  S
C1032      H1036   1.085       .  S
C1033      H1043   1.111       .  S
C1033      H1044   1.110       .  S
C1033      H1045   1.106       .  S
C1035      H1046   1.111       .  S
C1035      H1047   1.107       .  S
C1035      H1048   1.111       .  S
C1049      C1050   1.398       .  A
C1049      C1054   1.404       .  A
C1049      H1059   1.085       .  S
C1050      C1055   1.485       .  S
C1050      C1051   1.410       .  A
C1051      C1052   1.408       .  A
C1051      C1056   1.505       .  S
C1052      C1053   1.408       .  A
C1052      H1057   1.084       .  S
C1053      C1054   1.425       .  A
C1054      C1058   1.508   1_455  S
C1055      C1060   1.409       .  A
C1055      C1064   1.403       .  A
C1056      H1072   1.110       .  S
C1056      H1073   1.111       .  S
C1056      H1074   1.110       .  S
C1058      H1069   1.111       .  S
C1058      H1070   1.110       .  S
C1058      H1071   1.109       .  S
C1060      C1061   1.400       .  A
C1060      C1065   1.507       .  S
C1061      C1062   1.407       .  A
C1061      H1066   1.084       .  S
C1062      C1063   1.420       .  A
C1063      C1064   1.409       .  A
C1063      C1067   1.509       .  S
C1064      H1068   1.084       .  S
C1065      H1075   1.111       .  S
C1065      H1076   1.109       .  S
C1065      H1077   1.111       .  S
C1067      H1078   1.109       .  S
C1067      H1079   1.111       .  S
C1067      H1080   1.111       .  S
C1081      C1082   1.411       .  A
C1081      C1086   1.416       .  A
C1081      H1091   1.084       .  S
C1082      C1087   1.510       .  S
C1082      C1083   1.415       .  A
C1083      C1084   1.409       .  A
C1083      C1088   1.507       .  S
C1084      C1085   1.406       .  A
C1084      H1089   1.085       .  S
C1085      C1086   1.416       .  A
C1086      C1090   1.505       .  S
C1087      C1092   1.419       .  A
C1087      C1096   1.403       .  A
C1088      H1104   1.109       .  S
C1088      H1105   1.110       .  S
C1088      H1106   1.111       .  S
C1090      H1101   1.110       .  S
C1090      H1102   1.110       .  S
C1090      H1103   1.109       .  S
C1092      C1093   1.418       .  A
C1092      C1097   1.506       .  S
C1093      C1094   1.408   1_455  A
C1093      H1098   1.084       .  S
C1094      C1095   1.421   1_655  A
C1095      C1096   1.410       .  A
C1095      C1099   1.507   1_455  S
C1096      H1100   1.084       .  S
C1097      H1107   1.111       .  S
C1097      H1108   1.109       .  S
C1097      H1109   1.110       .  S
C1099      H1110   1.110   1_655  S
C1099      H1111   1.108       .  S
C1099      H1112   1.111       .  S
C1113      C1114   1.410       .  A
C1113      C1118   1.418       .  A
C1113      H1123   1.084       .  S
C1114      C1119   1.506       .  S
C1114      C1115   1.413       .  A
C1115      C1116   1.408       .  A
C1115      C1120   1.507       .  S
C1116      C1117   1.408       .  A
C1116      H1121   1.085       .  S
C1117      C1118   1.417       .  A
C1118      C1122   1.505       .  S
C1119      C1124   1.419       .  A
C1119      C1128   1.402       .  A
C1120      H1136   1.109       .  S
C1120      H1137   1.111       .  S
C1120      H1138   1.111       .  S
C1122      H1133   1.110       .  S
C1122      H1134   1.110       .  S
C1122      H1135   1.109       .  S
C1124      C1125   1.418   1_545  A
C1124      C1129   1.505       .  S
C1125      C1126   1.407       .  A
C1125      H1130   1.084       .  S
C1126      C1127   1.419   1_565  A
C1127      C1128   1.406       .  A
C1127      C1131   1.507   1_545  S
C1128      H1132   1.084       .  S
C1129      H1139   1.111       .  S
C1129      H1140   1.110       .  S
C1129      H1141   1.110       .  S
C1131      H1142   1.110   1_565  S
C1131      H1143   1.108       .  S
C1131      H1144   1.111       .  S
C1145      C1146   1.405       .  A
C1145      C1150   1.408       .  A
C1145      H1155   1.084       .  S
C1146      C1151   1.487       .  S
C1146      C1147   1.410       .  A
C1147      C1148   1.402       .  A
C1147      C1152   1.508   1_545  S
C1148      C1149   1.407       .  A
C1148      H1153   1.084   1_545  S
C1149      C1150   1.417       .  A
C1150      C1154   1.507       .  S
C1151      C1156   1.412       .  A
C1151      C1160   1.400       .  A
C1152      H1168   1.109   1_565  S
C1152      H1169   1.110       .  S
C1152      H1170   1.111       .  S
C1154      H1165   1.110       .  S
C1154      H1166   1.110       .  S
C1154      H1167   1.107       .  S
C1156      C1157   1.407       .  A
C1156      C1161   1.506       .  S
C1157      C1158   1.408       .  A
C1157      H1162   1.084       .  S
C1158      C1159   1.422       .  A
C1159      C1160   1.404       .  A
C1159      C1163   1.509       .  S
C1160      H1164   1.084       .  S
C1161      H1171   1.111       .  S
C1161      H1172   1.110       .  S
C1161      H1173   1.110       .  S
C1163      H1174   1.109       .  S
C1163      H1175   1.110       .  S
C1163      H1176   1.111       .  S
C1177      C1178   1.403       .  A
C1177      C1182   1.403       .  A
C1177      H1187   1.084       .  S
C1178      C1183   1.479       .  S
C1178      C1179   1.408       .  A
C1179      C1180   1.402       .  A
C1179      C1184   1.506       .  S
C1180      C1181   1.404       .  A
C1180      H1185   1.084       .  S
C1181      C1182   1.411       .  A
C1182      C1186   1.506       .  S
C1183      C1188   1.411       .  A
C1183      C1192   1.401       .  A
C1184      H1200   1.110       .  S
C1184      H1201   1.109       .  S
C1184      H1202   1.111       .  S
C1186      H1197   1.110       .  S
C1186      H1198   1.111       .  S
C1186      H1199   1.108       .  S
C1188      C1189   1.398       .  A
C1188      C1193   1.508       .  S
C1189      C1190   1.402       .  A
C1189      H1194   1.085       .  S
C1190      C1191   1.416       .  A
C1191      C1192   1.408       .  A
C1191      C1195   1.505       .  S
C1192      H1196   1.084       .  S
C1193      H1203   1.111       .  S
C1193      H1204   1.110       .  S
C1193      H1205   1.109       .  S
C1195      H1206   1.110       .  S
C1195      H1207   1.109       .  S
C1195      H1208   1.111       .  S
C1209      C1210   1.396       .  A
C1209      C1214   1.400       .  A
C1209      H1219   1.084       .  S
C1210      C1215   1.477       .  S
C1210      C1211   1.409       .  A
C1211      C1212   1.404       .  A
C1211      C1216   1.506       .  S
C1212      C1213   1.407       .  A
C1212      H1217   1.084       .  S
C1213      C1214   1.423       .  A
C1214      C1218   1.510       .  S
C1215      C1220   1.408       .  A
C1215      C1224   1.398       .  A
C1216      H1232   1.110       .  S
C1216      H1233   1.110       .  S
C1216      H1234   1.111       .  S
C1218      H1229   1.110       .  S
C1218      H1230   1.111       .  S
C1218      H1231   1.110       .  S
C1220      C1221   1.401       .  A
C1220      C1225   1.507       .  S
C1221      C1222   1.409       .  A
C1221      H1226   1.084       .  S
C1222      C1223   1.424       .  A
C1223      C1224   1.405       .  A
C1223      C1227   1.510       .  S
C1224      H1228   1.084       .  S
C1225      H1235   1.111       .  S
C1225      H1236   1.110       .  S
C1225      H1237   1.110       .  S
C1227      H1238   1.111       .  S
C1227      H1239   1.110       .  S
C1227      H1240   1.111       .  S
C1241      C1242   1.399       .  A
C1241      C1246   1.395       .  A
C1241      H1251   1.085       .  S
C1242      C1247   1.473       .  S
C1242      C1243   1.408       .  A
C1243      C1244   1.406       .  A
C1243      C1248   1.505       .  S
C1244      C1245   1.406       .  A
C1244      H1249   1.084       .  S
C1245      C1246   1.414       .  A
C1246      C1250   1.508       .  S
C1247      C1252   1.413       .  A
C1247      C1256   1.397       .  A
C1248      H1264   1.110       .  S
C1248      H1265   1.109       .  S
C1248      H1266   1.111       .  S
C1250      H1261   1.110       .  S
C1250      H1262   1.111       .  S
C1250      H1263   1.109       .  S
C1252      C1253   1.403       .  A
C1252      C1257   1.507       .  S
C1253      C1254   1.400       .  A
C1253      H1258   1.084       .  S
C1254      C1255   1.416       .  A
C1255      C1256   1.397       .  A
C1255      C1259   1.507       .  S
C1256      H1260   1.085       .  S
C1257      H1267   1.111       .  S
C1257      H1268   1.110       .  S
C1257      H1269   1.109       .  S
C1259      H1270   1.111       .  S
C1259      H1271   1.106       .  S
C1259      H1272   1.110       .  S
C1273      C1274   1.398       .  A
C1273      C1278   1.402       .  A
C1273      H1283   1.084       .  S
C1274      C1279   1.473       .  S
C1274      C1275   1.406       .  A
C1275      C1276   1.400       .  A
C1275      C1280   1.507       .  S
C1276      C1277   1.410       .  A
C1276      H1281   1.084       .  S
C1277      C1278   1.420       .  A
C1278      C1282   1.508       .  S
C1279      C1284   1.407       .  A
C1279      C1288   1.401       .  A
C1280      H1296   1.110       .  S
C1280      H1297   1.110       .  S
C1280      H1298   1.111       .  S
C1282      H1293   1.110       .  S
C1282      H1294   1.111       .  S
C1282      H1295   1.109       .  S
C1284      C1285   1.398       .  A
C1284      C1289   1.507       .  S
C1285      C1286   1.407       .  A
C1285      H1290   1.085       .  S
C1286      C1287   1.415       .  A
C1287      C1288   1.403       .  A
C1287      C1291   1.507       .  S
C1288      H1292   1.084       .  S
C1289      H1299   1.111       .  S
C1289      H1300   1.110       .  S
C1289      H1301   1.110       .  S
C1291      H1302   1.110       .  S
C1291      H1303   1.110       .  S
C1291      H1304   1.111       .  S
C1305      C1306   1.402       .  A
C1305      C1310   1.405       .  A
C1305      H1315   1.084       .  S
C1306      C1311   1.483       .  S
C1306      C1307   1.409       .  A
C1307      C1308   1.402       .  A
C1307      C1312   1.506       .  S
C1308      C1309   1.407       .  A
C1308      H1313   1.084       .  S
C1309      C1310   1.418       .  A
C1310      C1314   1.507       .  S
C1311      C1316   1.409       .  A
C1311      C1320   1.401       .  A
C1312      H1328   1.110       .  S
C1312      H1329   1.110       .  S
C1312      H1330   1.111       .  S
C1314      H1325   1.110       .  S
C1314      H1326   1.111       .  S
C1314      H1327   1.105       .  S
C1316      C1317   1.404       .  A
C1316      C1321   1.507       .  S
C1317      C1318   1.409       .  A
C1317      H1322   1.084       .  S
C1318      C1319   1.421       .  A
C1319      C1320   1.407       .  A
C1319      C1323   1.508   1_655  S
C1320      H1324   1.084       .  S
C1321      H1331   1.111       .  S
C1321      H1332   1.110       .  S
C1321      H1333   1.110       .  S
C1323      H1334   1.109       .  S
C1323      H1335   1.110   1_455  S
C1323      H1336   1.111   1_455  S
C1337      C1338   1.408       .  A
C1337      C1342   1.413   1_655  A
C1337      H1347   1.084       .  S
C1338      C1343   1.501       .  S
C1338      C1339   1.413       .  A
C1339      C1340   1.409   1_655  A
C1339      C1344   1.507       .  S
C1340      C1341   1.407       .  A
C1340      H1345   1.085       .  S
C1341      C1342   1.416       .  A
C1342      C1346   1.506       .  S
C1343      C1348   1.418       .  A
C1343      C1352   1.401       .  A
C1344      H1360   1.109       .  S
C1344      H1361   1.111       .  S
C1344      H1362   1.111       .  S
C1346      H1357   1.111   1_455  S
C1346      H1358   1.110       .  S
C1346      H1359   1.109       .  S
C1348      C1349   1.416       .  A
C1348      C1353   1.505       .  S
C1349      C1350   1.405       .  A
C1349      H1354   1.084       .  S
C1350      C1351   1.420       .  A
C1351      C1352   1.406       .  A
C1351      C1355   1.508       .  S
C1352      H1356   1.084       .  S
C1353      H1363   1.111       .  S
C1353      H1364   1.110       .  S
C1353      H1365   1.111       .  S
C1355      H1366   1.111       .  S
C1355      H1367   1.110       .  S
C1355      H1368   1.108       .  S
C1369      C1370   1.405       .  A
C1369      C1374   1.410   1_565  A
C1369      H1379   1.084       .  S
C1370      C1375   1.510       .  S
C1370      C1371   1.418       .  A
C1371      C1372   1.417       .  A
C1371      C1376   1.506       .  S
C1372      C1373   1.408   1_565  A
C1372      H1377   1.084       .  S
C1373      C1374   1.419       .  A
C1374      C1378   1.506       .  S
C1375      C1380   1.414       .  A
C1375      C1384   1.412       .  A
C1376      H1392   1.109       .  S
C1376      H1393   1.111       .  S
C1376      H1394   1.111       .  S
C1378      H1389   1.110       .  S
C1378      H1390   1.110       .  S
C1378      H1391   1.108       .  S
C1380      C1381   1.408       .  A
C1380      C1385   1.507       .  S
C1381      C1382   1.408       .  A
C1381      H1386   1.084       .  S
C1382      C1383   1.416       .  A
C1383      C1384   1.417       .  A
C1383      C1387   1.505       .  S
C1384      H1388   1.084       .  S
C1385      H1395   1.111       .  S
C1385      H1396   1.108       .  S
C1385      H1397   1.110       .  S
C1387      H1398   1.110       .  S
C1387      H1399   1.108       .  S
C1387      H1400   1.111       .  S
C1401      C1402   1.401       .  A
C1401      C1406   1.408       .  A
C1401      H1411   1.084       .  S
C1402      C1407   1.489       .  S
C1402      C1403   1.410       .  A
C1403      C1404   1.406       .  A
C1403      C1408   1.506       .  S
C1404      C1405   1.410       .  A
C1404      H1409   1.084       .  S
C1405      C1406   1.423       .  A
C1406      C1410   1.509       .  S
C1407      C1412   1.410       .  A
C1407      C1416   1.403       .  A
C1408      H1424   1.110       .  S
C1408      H1425   1.110       .  S
C1408      H1426   1.111       .  S
C1410      H1421   1.111       .  S
C1410      H1422   1.110       .  S
C1410      H1423   1.110       .  S
C1412      C1413   1.405       .  A
C1412      C1417   1.507       .  S
C1413      C1414   1.408       .  A
C1413      H1418   1.084   1_565  S
C1414      C1415   1.419       .  A
C1415      C1416   1.408       .  A
C1415      C1419   1.508       .  S
C1416      H1420   1.084       .  S
C1417      H1427   1.111   1_565  S
C1417      H1428   1.110       .  S
C1417      H1429   1.111       .  S
C1419      H1430   1.110       .  S
C1419      H1431   1.106       .  S
C1419      H1432   1.110       .  S
C1433      C1434   1.397       .  A
C1433      C1438   1.398       .  A
C1433      H1443   1.085       .  S
C1434      C1439   1.480       .  S
C1434      C1435   1.412       .  A
C1435      C1436   1.408       .  A
C1435      C1440   1.505       .  S
C1436      C1437   1.404       .  A
C1436      H1441   1.084       .  S
C1437      C1438   1.417       .  A
C1438      C1442   1.506       .  S
C1439      C1444   1.412       .  A
C1439      C1448   1.400       .  A
C1440      H1456   1.110       .  S
C1440      H1457   1.110       .  S
C1440      H1458   1.111       .  S
C1442      H1453   1.110       .  S
C1442      H1454   1.111       .  S
C1442      H1455   1.099       .  S
C1444      C1445   1.404       .  A
C1444      C1449   1.506       .  S
C1445      C1446   1.401       .  A
C1445      H1450   1.084       .  S
C1446      C1447   1.416       .  A
C1447      C1448   1.402       .  A
C1447      C1451   1.508       .  S
C1448      H1452   1.085       .  S
C1449      H1459   1.111       .  S
C1449      H1460   1.110       .  S
C1449      H1461   1.110       .  S
C1451      H1462   1.109       .  S
C1451      H1463   1.107       .  S
C1451      H1464   1.110       .  S
C1465      C1466   1.398       .  A
C1465      C1470   1.404       .  A
C1465      H1475   1.084       .  S
C1466      C1471   1.486       .  S
C1466      C1467   1.413       .  A
C1467      C1468   1.408       .  A
C1467      C1472   1.506       .  S
C1468      C1469   1.406       .  A
C1468      H1473   1.084       .  S
C1469      C1470   1.420       .  A
C1470      C1474   1.507       .  S
C1471      C1476   1.411       .  A
C1471      C1480   1.398       .  A
C1472      H1488   1.110       .  S
C1472      H1489   1.110       .  S
C1472      H1490   1.111       .  S
C1474      H1485   1.111       .  S
C1474      H1486   1.111       .  S
C1474      H1487   1.107       .  S
C1476      C1477   1.407       .  A
C1476      C1481   1.506       .  S
C1477      C1478   1.409       .  A
C1477      H1482   1.084       .  S
C1478      C1479   1.425       .  A
C1479      C1480   1.405       .  A
C1479      C1483   1.510       .  S
C1480      H1484   1.084       .  S
C1481      H1491   1.111       .  S
C1481      H1492   1.110       .  S
C1481      H1493   1.110       .  S
C1483      H1494   1.111       .  S
C1483      H1495   1.110       .  S
C1483      H1496   1.110       .  S
C1497      C1498   1.399       .  A
C1497      C1502   1.404       .  A
C1497      H1507   1.084       .  S
C1498      C1503   1.475       .  S
C1498      C1499   1.411       .  A
C1499      C1500   1.399       .  A
C1499      C1504   1.508       .  S
C1500      C1501   1.401       .  A
C1500      H1505   1.085       .  S
C1501      C1502   1.417       .  A
C1502      C1506   1.507       .  S
C1503      C1508   1.408       .  A
C1503      C1512   1.403       .  A
C1504      H1520   1.110       .  S
C1504      H1521   1.110       .  S
C1504      H1522   1.111       .  S
C1506      H1517   1.110       .  S
C1506      H1518   1.110       .  S
C1506      H1519   1.106       .  S
C1508      C1509   1.402       .  A
C1508      C1513   1.505       .  S
C1509      C1510   1.403       .  A
C1509      H1514   1.084       .  S
C1510      C1511   1.408       .  A
C1511      C1512   1.400       .  A
C1511      C1515   1.506       .  S
C1512      H1516   1.084       .  S
C1513      H1523   1.111       .  S
C1513      H1524   1.110       .  S
C1513      H1525   1.110       .  S
C1515      H1526   1.111       .  S
C1515      H1527   1.110       .  S
C1515      H1528   1.111       .  S
C1529      C1530   1.401       .  A
C1529      C1534   1.404       .  A
C1529      H1539   1.084       .  S
C1530      C1535   1.479       .  S
C1530      C1531   1.409       .  A
C1531      C1532   1.400       .  A
C1531      C1536   1.507       .  S
C1532      C1533   1.408       .  A
C1532      H1537   1.084       .  S
C1533      C1534   1.419       .  A
C1534      C1538   1.508       .  S
C1535      C1540   1.409       .  A
C1535      C1544   1.402       .  A
C1536      H1552   1.110       .  S
C1536      H1553   1.110       .  S
C1536      H1554   1.111       .  S
C1538      H1549   1.111       .  S
C1538      H1550   1.109       .  S
C1538      H1551   1.110       .  S
C1540      C1541   1.400       .  A
C1540      C1545   1.508       .  S
C1541      C1542   1.406       .  A
C1541      H1546   1.084       .  S
C1542      C1543   1.417       .  A
C1543      C1544   1.405       .  A
C1543      C1547   1.507       .  S
C1544      H1548   1.084       .  S
C1545      H1555   1.111       .  S
C1545      H1556   1.110       .  S
C1545      H1557   1.110       .  S
C1547      H1558   1.110       .  S
C1547      H1559   1.110       .  S
C1547      H1560   1.111       .  S
C1561      C1562   1.403       .  A
C1561      C1566   1.409       .  A
C1561      H1571   1.085       .  S
C1562      C1567   1.515       .  S
C1562      C1563   1.423       .  A
C1563      C1564   1.423       .  A
C1563      C1568   1.506       .  S
C1564      C1565   1.407       .  A
C1564      H1569   1.083       .  S
C1565      C1566   1.427       .  A
C1566      C1570   1.511       .  S
C1567      C1572   1.423       .  A
C1567      C1576   1.403       .  A
C1568      H1584   1.110       .  S
C1568      H1585   1.105       .  S
C1568      H1586   1.111       .  S
C1570      H1581   1.110       .  S
C1570      H1582   1.111       .  S
C1570      H1583   1.108       .  S
C1572      C1573   1.424       .  A
C1572      C1577   1.506       .  S
C1573      C1574   1.409       .  A
C1573      H1578   1.083       .  S
C1574      C1575   1.422       .  A
C1575      C1576   1.408       .  A
C1575      C1579   1.509       .  S
C1576      H1580   1.085       .  S
C1577      H1587   1.111       .  S
C1577      H1588   1.110       .  S
C1577      H1589   1.105       .  S
C1579      H1590   1.111       .  S
C1579      H1591   1.108       .  S
C1579      H1592   1.110       .  S
C1593      C1594   1.410       .  A
C1593      C1598   1.418       .  A
C1593      H1603   1.084       .  S
C1594      C1599   1.508       .  S
C1594      C1595   1.412       .  A
C1595      C1596   1.410       .  A
C1595      C1600   1.507       .  S
C1596      C1597   1.409       .  A
C1596      H1601   1.085       .  S
C1597      C1598   1.418       .  A
C1598      C1602   1.505       .  S
C1599      C1604   1.418       .  A
C1599      C1608   1.401       .  A
C1600      H1616   1.109       .  S
C1600      H1617   1.111       .  S
C1600      H1618   1.111       .  S
C1602      H1613   1.111       .  S
C1602      H1614   1.110       .  S
C1602      H1615   1.109       .  S
C1604      C1605   1.419       .  A
C1604      C1609   1.505       .  S
C1605      C1606   1.408   1_565  A
C1605      H1610   1.084   1_565  S
C1606      C1607   1.421   1_545  A
C1607      C1608   1.408       .  A
C1607      C1611   1.504   1_565  S
C1608      H1612   1.084       .  S
C1609      H1619   1.111       .  S
C1609      H1620   1.110       .  S
C1609      H1621   1.111       .  S
C1611      H1622   1.110   1_545  S
C1611      H1623   1.106       .  S
C1611      H1624   1.110       .  S
C1625      C1626   1.398       .  A
C1625      C1630   1.405   1_545  A
C1625      H1635   1.084       .  S
C1626      C1631   1.485       .  S
C1626      C1627   1.410       .  A
C1627      C1628   1.407       .  A
C1627      C1632   1.505       .  S
C1628      C1629   1.407       .  A
C1628      H1633   1.084       .  S
C1629      C1630   1.422   1_545  A
C1630      C1634   1.508       .  S
C1631      C1636   1.408       .  A
C1631      C1640   1.399       .  A
C1632      H1648   1.110       .  S
C1632      H1649   1.110       .  S
C1632      H1650   1.111       .  S
C1634      H1645   1.109       .  S
C1634      H1646   1.111       .  S
C1634      H1647   1.111       .  S
C1636      C1637   1.406       .  A
C1636      C1641   1.506       .  S
C1637      C1638   1.412       .  A
C1637      H1642   1.083       .  S
C1638      C1639   1.426       .  A
C1639      C1640   1.406       .  A
C1639      C1643   1.509       .  S
C1640      H1644   1.084       .  S
C1641      H1651   1.111       .  S
C1641      H1652   1.110       .  S
C1641      H1653   1.110       .  S
C1643      H1654   1.110       .  S
C1643      H1655   1.110       .  S
C1643      H1656   1.111       .  S
C1657      C1658   1.405       .  A
C1657      C1662   1.410   1_545  A
C1657      H1667   1.084       .  S
C1658      C1663   1.507       .  S
C1658      C1659   1.417       .  A
C1659      C1660   1.413       .  A
C1659      C1664   1.507       .  S
C1660      C1661   1.407   1_545  A
C1660      H1665   1.084       .  S
C1661      C1662   1.417       .  A
C1662      C1666   1.504       .  S
C1663      C1668   1.413       .  A
C1663      C1672   1.412       .  A
C1664      H1680   1.109       .  S
C1664      H1681   1.110       .  S
C1664      H1682   1.111       .  S
C1666      H1677   1.110       .  S
C1666      H1678   1.110       .  S
C1666      H1679   1.107       .  S
C1668      C1669   1.407       .  A
C1668      C1673   1.508       .  S
C1669      C1670   1.409       .  A
C1669      H1674   1.084       .  S
C1670      C1671   1.416       .  A
C1671      C1672   1.416       .  A
C1671      C1675   1.505       .  S
C1672      H1676   1.084       .  S
C1673      H1683   1.111       .  S
C1673      H1684   1.108       .  S
C1673      H1685   1.110       .  S
C1675      H1686   1.110       .  S
C1675      H1687   1.107       .  S
C1675      H1688   1.110       .  S
C1689      C1690   1.410       .  A
C1689      C1694   1.418       .  A
C1689      H1699   1.084       .  S
C1690      C1695   1.507       .  S
C1690      C1691   1.411       .  A
C1691      C1692   1.408       .  A
C1691      C1696   1.507       .  S
C1692      C1693   1.413       .  A
C1692      H1697   1.085       .  S
C1693      C1694   1.418       .  A
C1694      C1698   1.505       .  S
C1695      C1700   1.417       .  A
C1695      C1704   1.405       .  A
C1696      H1712   1.109       .  S
C1696      H1713   1.110       .  S
C1696      H1714   1.111       .  S
C1698      H1709   1.110       .  S
C1698      H1710   1.110       .  S
C1698      H1711   1.106       .  S
C1700      C1701   1.414       .  A
C1700      C1705   1.505       .  S
C1701      C1702   1.406       .  A
C1701      H1706   1.084       .  S
C1702      C1703   1.419       .  A
C1703      C1704   1.411       .  A
C1703      C1707   1.506       .  S
C1704      H1708   1.084       .  S
C1705      H1715   1.111       .  S
C1705      H1716   1.110       .  S
C1705      H1717   1.110       .  S
C1707      H1718   1.110       .  S
C1707      H1719   1.108       .  S
C1707      H1720   1.110       .  S
C1721      C1722   1.400       .  A
C1721      C1726   1.407       .  A
C1721      H1731   1.084       .  S
C1722      C1727   1.476       .  S
C1722      C1723   1.404       .  A
C1723      C1724   1.399       .  A
C1723      C1728   1.508       .  S
C1724      C1725   1.414       .  A
C1724      H1729   1.083       .  S
C1725      C1726   1.422       .  A
C1726      C1730   1.507   1_556  S
C1727      C1732   1.407       .  A
C1727      C1736   1.395       .  A
C1728      H1744   1.110       .  S
C1728      H1745   1.110       .  S
C1728      H1746   1.111       .  S
C1730      H1741   1.109       .  S
C1730      H1742   1.111       .  S
C1730      H1743   1.110       .  S
C1732      C1733   1.402       .  A
C1732      C1737   1.507       .  S
C1733      C1734   1.411       .  A
C1733      H1738   1.083       .  S
C1734      C1735   1.427       .  A
C1735      C1736   1.402       .  A
C1735      C1739   1.509       .  S
C1736      H1740   1.084       .  S
C1737      H1747   1.111       .  S
C1737      H1748   1.110       .  S
C1737      H1749   1.110       .  S
C1739      H1750   1.111       .  S
C1739      H1751   1.108       .  S
C1739      H1752   1.110       .  S
C1753      C1754   1.404       .  A
C1753      C1758   1.410       .  A
C1753      H1763   1.084       .  S
C1754      C1759   1.486       .  S
C1754      C1755   1.409       .  A
C1755      C1756   1.402       .  A
C1755      C1760   1.508   1_655  S
C1756      C1757   1.408       .  A
C1756      H1761   1.084   1_655  S
C1757      C1758   1.417       .  A
C1758      C1762   1.506       .  S
C1759      C1764   1.410       .  A
C1759      C1768   1.398       .  A
C1760      H1776   1.110   1_455  S
C1760      H1777   1.111       .  S
C1760      H1778   1.111       .  S
C1762      H1773   1.109       .  S
C1762      H1774   1.111       .  S
C1762      H1775   1.110       .  S
C1764      C1765   1.407       .  A
C1764      C1769   1.506       .  S
C1765      C1766   1.409       .  A
C1765      H1770   1.084       .  S
C1766      C1767   1.427       .  A
C1767      C1768   1.405       .  A
C1767      C1771   1.510       .  S
C1768      H1772   1.084       .  S
C1769      H1779   1.111       .  S
C1769      H1780   1.110       .  S
C1769      H1781   1.110       .  S
C1771      H1782   1.111       .  S
C1771      H1783   1.109       .  S
C1771      H1784   1.110       .  S
C1785      C1786   1.399       .  A
C1785      C1790   1.403       .  A
C1785      H1795   1.084       .  S
C1786      C1791   1.483       .  S
C1786      C1787   1.413       .  A
C1787      C1788   1.406       .  A
C1787      C1792   1.506       .  S
C1788      C1789   1.403       .  A
C1788      H1793   1.084       .  S
C1789      C1790   1.418       .  A
C1790      C1794   1.508       .  S
C1791      C1796   1.409       .  A
C1791      C1800   1.398       .  A
C1792      H1808   1.110       .  S
C1792      H1809   1.109       .  S
C1792      H1810   1.111       .  S
C1794      H1805   1.110       .  S
C1794      H1806   1.111       .  S
C1794      H1807   1.107       .  S
C1796      C1797   1.405       .  A
C1796      C1801   1.507       .  S
C1797      C1798   1.409       .  A
C1797      H1802   1.084       .  S
C1798      C1799   1.427       .  A
C1799      C1800   1.406       .  A
C1799      C1803   1.510       .  S
C1800      H1804   1.084       .  S
C1801      H1811   1.110       .  S
C1801      H1812   1.111       .  S
C1801      H1813   1.109       .  S
C1803      H1814   1.110       .  S
C1803      H1815   1.110       .  S
C1803      H1816   1.111       .  S
C1817      C1818   1.398       .  A
C1817      C1822   1.402       .  A
C1817      H1827   1.084       .  S
C1818      C1823   1.475       .  S
C1818      C1819   1.413       .  A
C1819      C1820   1.402       .  A
C1819      C1824   1.508       .  S
C1820      C1821   1.400       .  A
C1820      H1825   1.084       .  S
C1821      C1822   1.416       .  A
C1822      C1826   1.506       .  S
C1823      C1828   1.409       .  A
C1823      C1832   1.401       .  A
C1824      H1840   1.110       .  S
C1824      H1841   1.109       .  S
C1824      H1842   1.111       .  S
C1826      H1837   1.110       .  S
C1826      H1838   1.110       .  S
C1826      H1839   1.107       .  S
C1828      C1829   1.404       .  A
C1828      C1833   1.505       .  S
C1829      C1830   1.403       .  A
C1829      H1834   1.084       .  S
C1830      C1831   1.411       .  A
C1831      C1832   1.398       .  A
C1831      C1835   1.508       .  S
C1832      H1836   1.085       .  S
C1833      H1843   1.111       .  S
C1833      H1844   1.110       .  S
C1833      H1845   1.109       .  S
C1835      H1846   1.110       .  S
C1835      H1847   1.109       .  S
C1835      H1848   1.110       .  S
C1849      C1850   1.398       .  A
C1849      C1854   1.399       .  A
C1849      H1859   1.085       .  S
C1850      C1855   1.473       .  S
C1850      C1851   1.410       .  A
C1851      C1852   1.401       .  A
C1851      C1856   1.506       .  S
C1852      C1853   1.402       .  A
C1852      H1857   1.084       .  S
C1853      C1854   1.417       .  A
C1854      C1858   1.508       .  S
C1855      C1860   1.409       .  A
C1855      C1864   1.401       .  A
C1856      H1872   1.110       .  S
C1856      H1873   1.110       .  S
C1856      H1874   1.111       .  S
C1858      H1869   1.110       .  S
C1858      H1870   1.111       .  S
C1858      H1871   1.105       .  S
C1860      C1861   1.399       .  A
C1860      C1865   1.507       .  S
C1861      C1862   1.402       .  A
C1861      H1866   1.085       .  S
C1862      C1863   1.414       .  A
C1863      C1864   1.401       .  A
C1863      C1867   1.509       .  S
C1864      H1868   1.084       .  S
C1865      H1875   1.111       .  S
C1865      H1876   1.110       .  S
C1865      H1877   1.110       .  S
C1867      H1878   1.110       .  S
C1867      H1879   1.108       .  S
C1867      H1880   1.110       .  S
C1881      C1882   1.403   1_556  A
C1881      C1886   1.407   1_655  A
C1881      H1891   1.084       .  S
C1882      C1887   1.509       .  S
C1882      C1883   1.420       .  A
C1883      C1884   1.418   1_655  A
C1883      C1888   1.505       .  S
C1884      C1885   1.407       .  A
C1884      H1889   1.084       .  S
C1885      C1886   1.418   1_554  A
C1886      C1890   1.506       .  S
C1887      C1892   1.415       .  A
C1887      C1896   1.411       .  A
C1888      H1904   1.109       .  S
C1888      H1905   1.110       .  S
C1888      H1906   1.111       .  S
C1890      H1901   1.107       .  S
C1890      H1902   1.111       .  S
C1890      H1903   1.110       .  S
C1892      C1893   1.409       .  A
C1892      C1897   1.508       .  S
C1893      C1894   1.408       .  A
C1893      H1898   1.084       .  S
C1894      C1895   1.416       .  A
C1895      C1896   1.417       .  A
C1895      C1899   1.505       .  S
C1896      H1900   1.084       .  S
C1897      H1907   1.111       .  S
C1897      H1908   1.108       .  S
C1897      H1909   1.110       .  S
C1899      H1910   1.110       .  S
C1899      H1911   1.109       .  S
C1899      H1912   1.110       .  S
C1913      C1914   1.401       .  A
C1913      C1918   1.406       .  A
C1913      H1923   1.084       .  S
C1914      C1919   1.505       .  S
C1914      C1915   1.419       .  A
C1915      C1916   1.418       .  A
C1915      C1920   1.505       .  S
C1916      C1917   1.406       .  A
C1916      H1921   1.084       .  S
C1917      C1918   1.419       .  A
C1918      C1922   1.508       .  S
C1919      C1924   1.414       .  A
C1919      C1928   1.407       .  A
C1920      H1936   1.109       .  S
C1920      H1937   1.111       .  S
C1920      H1938   1.111       .  S
C1922      H1933   1.110       .  S
C1922      H1934   1.110   1_554  S
C1922      H1935   1.108       .  S
C1924      C1925   1.412       .  A
C1924      C1929   1.507       .  S
C1925      C1926   1.409       .  A
C1925      H1930   1.085       .  S
C1926      C1927   1.416       .  A
C1927      C1928   1.413       .  A
C1927      C1931   1.505   1_554  S
C1928      H1932   1.084   1_554  S
C1929      H1939   1.111       .  S
C1929      H1940   1.109       .  S
C1929      H1941   1.111       .  S
C1931      H1942   1.110       .  S
C1931      H1943   1.109       .  S
C1931      H1944   1.111       .  S
