geometry optimzed in LAMMPS
_audit_creation_date              2020-12-01 
_audit_creation_method            'lammps2cif' 
_symmetry_space_group_name_H-M    'P1' 
_symmetry_Int_Tables_number       1 
_symmetry_cell_setting            triclinic 
loop_ 
_symmetry_equiv_pos_as_xyz 
  x,y,z 
_cell_length_a                    30.49969018 
_cell_length_b                    31.042794177446133 
_cell_length_c                    56.70346503447304 
_cell_angle_alpha                 90.15925758674801 
_cell_angle_beta                  89.87243957673817 
_cell_angle_gamma                 119.64785780195066 
loop_ 
_atom_site_label 
_atom_site_type_symbol 
_atom_site_fract_x 
_atom_site_fract_y 
_atom_site_fract_z 
_atom_site_charge 
O1          O  0.91727782  0.33743062  0.75193500    -0.88800
C2          C  0.95947509  0.27279677  0.70135592     0.87200
Mg3        Mg  0.86591600  0.36278614  0.74682963     1.58100
O4          O  0.03101301  0.39925714  0.71587338    -0.88500
O5          O  0.99074976  0.36375127  0.76790860    -0.75900
C6          C  0.91314810  0.45814239  0.63611017     0.92300
O7          O  0.84508253  0.26496587  0.71166326    -0.75700
O8          O  0.87646409  0.44401734  0.65082528    -0.83200
Mg9        Mg  0.89357731  0.26261691  0.74200457     1.58000
C10         C  0.10887505  0.48848513  0.65785370     0.92200
O11         O  0.93810397  0.25518915  0.77362503    -0.81400
H12         H  0.07993421  0.45559042  0.73701512    -0.06800
C13         C  0.94649932  0.36342186  0.65786013     0.87100
O14         O  0.92845033  0.44096325  0.73716290    -0.76000
O15         O  0.95844544  0.29275345  0.72016988    -0.88700
O16         O  0.10558063  0.46365838  0.67608367    -0.81500
C17         C  0.10892676  0.34454734  0.70984389     0.92300
C18         C  0.98146665  0.25948767  0.77735069     0.92200
Mg19       Mg  0.00284459  0.47081974  0.67622555     1.58000
O20         O  0.95637903  0.46569632  0.64290293    -0.81400
O21         O  0.05103931  0.47736995  0.71001360    -0.75700
O22         O  0.06381819  0.31276906  0.71382901    -0.81500
O23         O  0.82314117  0.23158866  0.76436613    -0.83200
O24         O  0.82301083  0.42695262  0.70809741    -0.81600
C25         C  0.05538481  0.44459155  0.72181120     0.86600
O26         O  0.93828780  0.44644081  0.69858447    -0.88700
O27         O  0.98241611  0.39240621  0.67120578    -0.88800
O28         O  0.90252833  0.35844209  0.65997210    -0.75900
Mg29       Mg  0.02583110  0.33872897  0.73921726     1.58000
O30         O  0.11738218  0.37705732  0.69438608    -0.83200
H31         H  0.93449926  0.37043473  0.78359594    -0.07000
O32         O  0.85583416  0.34044166  0.71067584    -0.88500
H33         H  0.80735640  0.28630526  0.68945742    -0.06800
H34         H  0.97492837  0.50472752  0.71998746    -0.07000
C35         C  0.83452251  0.29695809  0.70359480     0.86600
C36         C  0.94652355  0.35745764  0.76853608     0.87200
C37         C  0.94754458  0.46576091  0.71842949     0.87200
H38         H  0.95307896  0.34208665  0.64464216    -0.06900
O39         O  0.98987685  0.29766334  0.68475282    -0.76000
Mg40       Mg  0.86583947  0.39389767  0.68385697     1.58000
H41         H  0.93466483  0.23340238  0.69909133    -0.07000
C42         C  0.79129837  0.24647480  0.76683736     0.92200
O43         O  0.81392740  0.39090382  0.74312327    -0.83200
C44         C  0.80555314  0.41798110  0.72941230     0.92300
O45         O  0.01534321  0.27633530  0.76166242    -0.83200
Mg46       Mg  0.04815648  0.38200253  0.68052914     1.58200
O47         O  0.80004542  0.28896972  0.75986985    -0.81500
O48         O  0.07253890  0.49555283  0.65225916    -0.83200
O49         O  0.00705769  0.66136492  0.47925820    -0.88800
C50         C  0.02982398  0.63569847  0.41130780     0.87200
Mg51       Mg  0.97828105  0.60401518  0.50591547     1.58100
O52         O  0.91981201  0.64427706  0.42314192    -0.88500
O53         O  0.98699995  0.71466704  0.46549195    -0.75900
C54         C  0.79833189  0.40666944  0.44475221     0.92300
O55         O  0.04251148  0.58541954  0.46193956    -0.75700
O56         O  0.82320720  0.40878079  0.46350280    -0.83200
Mg57       Mg  0.06965755  0.66844397  0.45785859     1.58000
C58         C  0.78748071  0.54556317  0.39121715     0.92200
O59         O  0.11565373  0.75444872  0.44969631    -0.81400
H60         H  0.88740421  0.68167864  0.43622583    -0.06800
C61         C  0.90603754  0.50984417  0.41779117     0.87100
O62         O  0.89665744  0.58551846  0.50037305    -0.76000
O63         O  0.02338160  0.65693188  0.42825296    -0.88700
O64         O  0.83273528  0.57656537  0.38567344    -0.81500
C65         C  0.98364316  0.69376343  0.36766378     0.92300
C66         C  0.11164426  0.78365289  0.43504989     0.92200
Mg67       Mg  0.82465035  0.52517792  0.44095030     1.58000
O68         O  0.79889913  0.44494118  0.43677816    -0.81400
O69         O  0.84856487  0.60780757  0.44291724    -0.75700
O70         O  0.00315401  0.71103403  0.38742606    -0.81500
O71         O  0.11436770  0.68136321  0.49045840    -0.83200
O72         O  0.88658028  0.47362359  0.51783904    -0.81600
C73         C  0.88528863  0.64613639  0.43382021     0.86600
O74         O  0.86559372  0.53026761  0.47206981    -0.88700
O75         O  0.88912483  0.53861036  0.42018973    -0.88800
O76         O  0.91380783  0.48882077  0.43525867    -0.75900
Mg77       Mg  0.99304272  0.70713926  0.42576449     1.58000
O78         O  0.94148562  0.65404864  0.36592424    -0.83200
H79         H  0.99402299  0.70544396  0.50041482    -0.07000
O80         O  0.97046182  0.54889273  0.48071806    -0.88500
H81         H  0.00637116  0.51268020  0.47085979    -0.06800
H82         H  0.82337776  0.55149405  0.49028555    -0.07000
C83         C  0.00642471  0.54751860  0.47149042     0.86600
C84         C  0.99673283  0.69461413  0.48257028     0.87200
C85         C  0.86002503  0.55463914  0.48787973     0.87200
H86         H  0.91591774  0.50349108  0.40030806    -0.06900
O87         O  0.99405633  0.60942063  0.39733501    -0.76000
Mg88       Mg  0.89832575  0.48278672  0.47524640     1.58000
H89         H  0.06628412  0.63853135  0.40869242    -0.07000
C90         C  0.10412462  0.66219810  0.51091480     0.92200
O91         O  0.94725723  0.54449760  0.53402794    -0.83200
C92         C  0.91174707  0.49972387  0.53591485     0.92300
O93         O  0.06969283  0.77261841  0.42580037    -0.83200
Mg94       Mg  0.91281390  0.59461999  0.39422587     1.58200
O95         O  0.06024567  0.62769013  0.51693535    -0.81500
O96         O  0.77670217  0.51888000  0.40952510    -0.83200
O97         O  0.69302971  0.12790650  0.06798640    -0.88800
C98         C  0.75741704  0.07863825  0.11533076     0.87200
Mg99       Mg  0.67285869  0.18200260  0.07476021     1.58100
O100        O  0.62618681  0.01272600  0.10505030    -0.88500
O101        O  0.65621256  0.05392164  0.05299728    -0.75900
C102        C  0.59641283  0.14752452  0.18871285     0.92300
O103        O  0.77391821  0.19580391  0.10695856    -0.75700
O104        O  0.60906735  0.18266700  0.17367791    -0.83200
Mg105      Mg  0.76862806  0.14573539  0.07619437     1.58000
C106        C  0.54843044  0.94980156  0.16645887     0.92200
O107        O  0.77208243  0.10026036  0.04430815    -0.81400
H108        H  0.56467472  0.97426010  0.08500701    -0.06800
C109        C  0.67909929  0.10245854  0.16159425     0.87100
O110        O  0.59318311  0.12479436  0.08691251    -0.76000
O111        O  0.73491437  0.08200454  0.09790892    -0.88700
O112        O  0.56361588  0.94897060  0.14584692    -0.81500
C113        C  0.67376933  0.93206138  0.10719222     0.92300
C114        C  0.76319553  0.05606540  0.04044526     0.92200
Mg115      Mg  0.56862537  0.05494620  0.14843076     1.58000
O116        O  0.58454110  0.10364640  0.18209705    -0.81400
O117        O  0.55293992  0.00644295  0.11399543    -0.75700
O118        O  0.70720582  0.97590588  0.10319176    -0.81500
O119        O  0.80306681  0.21536141  0.05420320    -0.83200
O120        O  0.62374603  0.23702770  0.11660606    -0.81600
C121        C  0.58098210  0.99709359  0.10047534     0.86600
O122        O  0.59210427  0.11797566  0.12568397    -0.88700
O123        O  0.64661210  0.06870300  0.14848208    -0.88800
O124        O  0.68692645  0.14681348  0.16047322    -0.75900
Mg125      Mg  0.68118735  0.01642379  0.08004865     1.58000
O126        O  0.64259867  0.92520165  0.12354032    -0.83200
H127        H  0.65535343  0.11230033  0.03745160    -0.07000
O128        O  0.70016296  0.19156259  0.11004929    -0.88500
H129        H  0.75920557  0.23727883  0.12986206    -0.06800
H130        H  0.52975796  0.08362672  0.10604761    -0.07000
C131        C  0.74492506  0.20990878  0.11591318     0.86600
C132        C  0.66824777  0.09910242  0.05203405     0.87200
C133        C  0.57003287  0.10866439  0.10641554     0.87200
H134        H  0.70075759  0.09367871  0.17377482    -0.06900
O135        O  0.73340548  0.04899324  0.13214006    -0.76000
Mg136      Mg  0.65277095  0.18782780  0.13878377     1.58000
H137        H  0.79809951  0.10041629  0.11608401    -0.07000
C138        C  0.79064260  0.24886486  0.05276990     0.92200
O139        O  0.65030469  0.23741939  0.07991848    -0.83200
C140        C  0.63035269  0.25243068  0.09497505     0.92300
O141        O  0.73868140  0.02148937  0.05499258    -0.83200
Mg142      Mg  0.64701216  0.99806623  0.13839250     1.58200
O143        O  0.74873412  0.24269411  0.06054227    -0.81500
O144        O  0.54583179  0.98755565  0.17325080    -0.83200
O145        O  0.40101943  0.05583577  0.34469174    -0.88800
C146        C  0.42313023  0.04577835  0.41485807     0.87200
Mg147      Mg  0.46056364  0.08453651  0.31875950     1.58100
O148        O  0.40883639  0.14743380  0.39604294    -0.88500
O149        O  0.34187632  0.07170068  0.35520056    -0.75900
C150        C  0.65412841  0.27052291  0.37923706     0.92300
O151        O  0.48294647  0.03180825  0.36639539    -0.75700
O152        O  0.65399716  0.24719847  0.36040070    -0.83200
Mg153      Mg  0.39759520  0.00012009  0.36880824     1.58000
C154        C  0.50425533  0.28347760  0.42625657     0.92200
O155        O  0.31066586  0.95077222  0.37635417    -0.81400
H156        H  0.37091642  0.17609313  0.37974787    -0.06800
C157        C  0.54733144  0.16723080  0.40628075     0.87100
O158        O  0.47367314  0.16349207  0.32213459    -0.76000
O159        O  0.40301422  0.04833362  0.39648668    -0.88700
O160        O  0.46892245  0.23972967  0.43043213    -0.81500
C161        C  0.35381544  0.09390323  0.45283534     0.92300
C162        C  0.27779248  0.95368379  0.38930848     0.92200
Mg163      Mg  0.53222281  0.24327055  0.37986954     1.58000
O164        O  0.61422555  0.26953438  0.38633303    -0.81400
O165        O  0.44704341  0.21675833  0.37571621    -0.75700
O166        O  0.33925777  0.06858060  0.43417207    -0.81500
O167        O  0.39139169  0.95276769  0.33802804    -0.83200
O168        O  0.59121356  0.18004875  0.30697952    -0.81600
C169        C  0.40720889  0.17979143  0.38388677     0.86600
O170        O  0.52987018  0.20080402  0.35005028    -0.88700
O171        O  0.51723259  0.18226456  0.40217731    -0.88800
O172        O  0.57163183  0.15975605  0.38994469    -0.75900
Mg173      Mg  0.34737321  0.07282460  0.39524738     1.58000
O174        O  0.39285808  0.13663292  0.45312909    -0.83200
H175        H  0.35467292  0.06042786  0.32123922    -0.07000
O176        O  0.51656175  0.09895936  0.34492112    -0.88500
H177        H  0.55704211  0.06977231  0.35768199    -0.06800
H178        H  0.50394453  0.23635394  0.33015674    -0.07000
C179        C  0.52034774  0.06681071  0.35598443     0.86600
C180        C  0.36510918  0.06174084  0.33954573     0.87200
C181        C  0.50356114  0.20198305  0.33375256     0.87200
H182        H  0.55241389  0.15926068  0.42429549    -0.06900
O183        O  0.44632567  0.08319309  0.42816061    -0.76000
Mg184      Mg  0.58076005  0.17141421  0.34951174     1.58000
H185        H  0.42180223  0.01136670  0.41943471    -0.07000
C186        C  0.41287179  0.96052485  0.31798731     0.92200
O187        O  0.52157872  0.11644703  0.29101143    -0.83200
C188        C  0.56572145  0.15380896  0.28901789     0.92300
O189        O  0.28421070  0.99492768  0.39668905    -0.83200
Mg190      Mg  0.45686024  0.16159148  0.42656260     1.58200
O191        O  0.44361650  0.00424677  0.31055908    -0.81500
O192        O  0.53620624  0.29246455  0.41001802    -0.83200
O193        O  0.60695677  0.71442150  0.23390659    -0.88800
C194        C  0.71882411  0.78787694  0.28053182     0.87200
Mg195      Mg  0.53121103  0.69153622  0.24131426     1.58100
O196        O  0.66284304  0.65966459  0.27283597    -0.88500
O197        O  0.64979602  0.68139331  0.21972974    -0.75900
C198        C  0.49538971  0.61583685  0.35629563     0.92300
O199        O  0.61397480  0.79456686  0.27128592    -0.75700
O200        O  0.47203474  0.62942920  0.34182984    -0.83200
Mg201      Mg  0.66028750  0.79066003  0.24014093     1.58000
C202        C  0.65511533  0.57853184  0.33368221     0.92200
O203        O  0.70946130  0.79299269  0.20795625    -0.81400
H204        H  0.65384593  0.59958860  0.25438277    -0.06800
C205        C  0.62272176  0.70542188  0.32921957     0.87100
O206        O  0.51555383  0.61513686  0.25398201    -0.76000
O207        O  0.69697608  0.76458791  0.26247558    -0.88700
O208        O  0.68030378  0.60517224  0.31635465    -0.81500
C209        C  0.79951414  0.72032167  0.27539831     0.92300
C210        C  0.74708166  0.78642306  0.20385965     0.92200
Mg211      Mg  0.56792416  0.59729333  0.31531926     1.58000
O212        O  0.52949232  0.60668263  0.34877812    -0.81400
O213        O  0.60524298  0.58330958  0.28207072    -0.75700
O214        O  0.78369111  0.74865167  0.26874867    -0.81500
O215        O  0.61865052  0.81832508  0.21742037    -0.83200
O216        O  0.42796326  0.63861300  0.28401131    -0.81600
C217        C  0.64151138  0.61347939  0.26897216     0.86600
O218        O  0.52554620  0.61817391  0.29255579    -0.88700
O219        O  0.62734516  0.67316611  0.31835797    -0.88800
O220        O  0.58389535  0.71057862  0.32684424    -0.75900
Mg221      Mg  0.71468470  0.71356673  0.24598987     1.58000
O222        O  0.77530772  0.68948670  0.29164839    -0.83200
H223        H  0.58560903  0.67270769  0.20466084    -0.07000
O224        O  0.54845379  0.72032227  0.27649774    -0.88500
H225        H  0.55920034  0.77901301  0.29555834    -0.06800
H226        H  0.49943652  0.55528092  0.27414238    -0.07000
C227        C  0.57271914  0.76498804  0.28150424     0.86600
C228        C  0.61293355  0.68927281  0.21869403     0.87200
C229        C  0.51204614  0.59452420  0.27380441     0.87200
H230        H  0.65251546  0.73004631  0.34099682    -0.06900
O231        O  0.72463397  0.76623762  0.29839404    -0.76000
Mg232      Mg  0.50782508  0.67297809  0.30594407     1.58000
H233        H  0.73360888  0.82750355  0.28110382    -0.07000
C234        C  0.57182615  0.80464453  0.21714795     0.92200
O235        O  0.45197105  0.66487295  0.24706998    -0.83200
C236        C  0.41777372  0.64342834  0.26232373     0.92300
O237        O  0.76259036  0.76748118  0.21911632    -0.83200
Mg238      Mg  0.70049019  0.68397914  0.30689697     1.58200
O239        O  0.53866461  0.76407195  0.22639560    -0.81500
O240        O  0.61242759  0.57372282  0.33900937    -0.83200
O241        O  0.36652963  0.47675532  0.58361899    -0.88800
C242        C  0.30282085  0.35919681  0.53909469     0.87200
Mg243      Mg  0.38044257  0.54805903  0.57447886     1.58100
O244        O  0.43419247  0.42827477  0.54673330    -0.88500
O245        O  0.40926403  0.44474208  0.59854764    -0.75900
C246        C  0.45533708  0.58203967  0.45855606     0.92300
O247        O  0.27903395  0.45624774  0.54667160    -0.75700
O248        O  0.43454206  0.59943318  0.47260780    -0.83200
Mg249      Mg  0.29139917  0.41696622  0.57805939     1.58000
C250        C  0.50957028  0.43789300  0.48526668     0.92200
O251        O  0.29237319  0.37097452  0.61040086    -0.81400
H252        H  0.49693819  0.45564689  0.56636780    -0.06800
C253        C  0.37492822  0.45422076  0.48877685     0.87100
O254        O  0.46012305  0.57209849  0.56081740    -0.76000
O255        O  0.32549917  0.38649951  0.55601051    -0.88700
O256        O  0.49641767  0.42604851  0.50644018    -0.81500
C257        C  0.38940708  0.29787067  0.54747413     0.92300
C258        C  0.30460556  0.33770075  0.61419970     0.92200
Mg259      Mg  0.48635863  0.52236877  0.50087856     1.58000
O260        O  0.47090352  0.55309761  0.46615222    -0.81400
O261        O  0.50474814  0.49482190  0.53631204    -0.75700
O262        O  0.35697396  0.31009944  0.55236066    -0.81500
O263        O  0.25821387  0.45298820  0.60110742    -0.83200
O264        O  0.41736359  0.64300970  0.52898560    -0.81600
C265        C  0.47898752  0.45926300  0.55066485     0.86600
O266        O  0.45907450  0.56150551  0.52225039    -0.88700
O267        O  0.40964697  0.45639905  0.50178081    -0.88800
O268        O  0.36348728  0.48857340  0.48921437    -0.75900
Mg269      Mg  0.38417038  0.37981879  0.57319933     1.58000
O270        O  0.42175382  0.32310508  0.53180291    -0.83200
H271        H  0.40793454  0.50407729  0.61286635    -0.07000
O272        O  0.35033792  0.52424665  0.53969306    -0.88500
H273        H  0.28735164  0.50634566  0.52167231    -0.06800
H274        H  0.52290029  0.59461581  0.54088377    -0.07000
C275        C  0.30501385  0.49661042  0.53559344     0.86600
C276        C  0.39456327  0.47629021  0.59910544     0.87200
C277        C  0.48224359  0.57763142  0.54106756     0.87200
H278        H  0.35431361  0.42254071  0.47734866    -0.06900
O279        O  0.32681824  0.35275641  0.52222988    -0.76000
Mg280      Mg  0.39376608  0.56446831  0.50901854     1.58000
H281        H  0.26204193  0.33969940  0.53885846    -0.07000
C282        C  0.26686800  0.49751876  0.60149507     0.92200
O283        O  0.39631076  0.62263129  0.56684353    -0.83200
C284        C  0.41122476  0.65390505  0.55036856     0.92300
O285        O  0.33269205  0.33083570  0.60011759    -0.83200
Mg286      Mg  0.41328663  0.38880395  0.51473770     1.58200
O287        O  0.30436319  0.53268738  0.59090100    -0.81500
O288        O  0.51270272  0.47765570  0.47741967    -0.83200
O289        O  0.10926823  0.45188548  0.89912841    -0.88800
C290        C  0.06494897  0.33878199  0.94551222     0.87200
Mg291      Mg  0.16439875  0.52556548  0.90618202     1.58100
O292        O  0.00094063  0.40624053  0.93866751    -0.88500
O293        O  0.03329292  0.41475111  0.88505144    -0.75900
C294        C  0.13712686  0.56870759  0.02015714     0.92300
O295        O  0.18108248  0.43965832  0.93614806    -0.75700
O296        O  0.17114289  0.58953909  0.00428588    -0.83200
Mg297      Mg  0.12890548  0.39552480  0.90565567     1.58000
C298        C  0.93752953  0.41538590  0.00199072     0.92200
O299        O  0.08082022  0.34549369  0.87432512    -0.81400
H300        H  0.95203557  0.42139116  0.92113733    -0.06800
C301        C  0.09179023  0.44050378  0.99435101     0.87100
O302        O  0.10600859  0.54596809  0.91961280    -0.76000
O303        O  0.06583650  0.36342360  0.92816315    -0.88700
O304        O  0.93555368  0.39947908  0.98134159    -0.81500
C305        C  0.91671448  0.27282564  0.94271798     0.92300
C306        C  0.03545995  0.31071487  0.87078116     0.92200
Mg307      Mg  0.04030589  0.50036830  0.98236621     1.58000
O308        O  0.09230310  0.53504758  0.01498785    -0.81400
O309        O  0.98665271  0.46689996  0.94930049    -0.75700
O310        O  0.96000919  0.28525334  0.93508377    -0.81500
O311        O  0.19788784  0.43269953  0.88262849    -0.83200
O312        O  0.21786997  0.62596343  0.94825262    -0.81600
C313        C  0.97843179  0.43091118  0.93554183     0.86600
O314        O  0.10157845  0.53924915  0.95839079    -0.88700
O315        O  0.05661162  0.43834774  0.98171955    -0.88800
O316        O  0.13653292  0.47702644  0.99261041    -0.75900
Mg317      Mg  0.99799578  0.35241792  0.91186939     1.58000
O318        O  0.91225592  0.29879137  0.95880565    -0.83200
H319        H  0.09144156  0.47457106  0.86947991    -0.07000
O320        O  0.17580300  0.50711555  0.94096275    -0.88500
H321        H  0.22341943  0.49384941  0.95956770    -0.06800
H322        H  0.06470200  0.56627144  0.94008166    -0.07000
C323        C  0.19508133  0.48134743  0.94588667     0.86600
C324        C  0.07902884  0.44812594  0.88377301     0.87200
C325        C  0.09058659  0.55195011  0.93959036     0.87200
H326        H  0.08392222  0.41086529  0.00657522    -0.06900
O327        O  0.03774678  0.33408444  0.96352762    -0.76000
Mg328      Mg  0.17374111  0.55000434  0.97011849     1.58000
H329        H  0.08718400  0.32039730  0.94525712    -0.07000
C330        C  0.23200811  0.47810955  0.88213153     0.92200
O331        O  0.22050033  0.60322287  0.91123842    -0.83200
C332        C  0.23336349  0.63654258  0.92678044     0.92300
O333        O  0.00028707  0.30247682  0.88508777    -0.83200
Mg334      Mg  0.98586415  0.36734255  0.97242721     1.58200
O335        O  0.22631342  0.51258862  0.89112206    -0.81500
O336        O  0.97531356  0.45602450  0.00838080    -0.83200
O337        O  0.05993760  0.70305206  0.17236794    -0.88800
C338        C  0.04637572  0.66351137  0.24118561     0.87200
Mg339      Mg  0.08543699  0.66921219  0.14635397     1.58100
O340        O  0.15550923  0.77739622  0.22595092    -0.88500
O341        O  0.08303539  0.77774725  0.18499972    -0.75900
C342        C  0.26754973  0.64933743  0.20623935     0.92300
O343        O  0.02431367  0.59325873  0.19229315    -0.75700
O344        O  0.24054448  0.62483344  0.18841555    -0.83200
Mg345      Mg  0.00024598  0.65201603  0.19576284     1.58000
C346        C  0.29133972  0.80855322  0.25504031     0.92200
O347        O  0.95654645  0.69469418  0.20412404    -0.81400
H348        H  0.18703904  0.84428426  0.21079333    -0.06800
C349        C  0.16675288  0.65604747  0.23409435     0.87100
O350        O  0.16782391  0.72962528  0.14970574    -0.76000
O351        O  0.05107976  0.68886537  0.22365639    -0.88700
O352        O  0.24705851  0.79720492  0.26165292    -0.81500
C353        C  0.09703183  0.76750060  0.28300085     0.92300
C354        C  0.96186889  0.72824155  0.21883847     0.92200
Mg355      Mg  0.24669504  0.74594214  0.20725150     1.58000
O356        O  0.26978169  0.68942511  0.21259615    -0.81400
O357        O  0.22419046  0.80631429  0.20433486    -0.75700
O358        O  0.07500442  0.76364052  0.26372469    -0.81500
O359        O  0.95062366  0.61642761  0.16478376    -0.83200
O360        O  0.17411835  0.62367990  0.13569964    -0.81600
C361        C  0.18890885  0.81088804  0.21391225     0.86600
O362        O  0.20116369  0.70716155  0.17799704    -0.88700
O363        O  0.18472361  0.70088574  0.23008339    -0.88800
O364        O  0.15494876  0.62420327  0.21768792    -0.75900
Mg365      Mg  0.08162901  0.76859217  0.22504406     1.58000
O366        O  0.14145001  0.77383693  0.28350056    -0.83200
H367        H  0.07184685  0.75816394  0.15043014    -0.07000
O368        O  0.09492181  0.62490240  0.17267467    -0.88500
H369        H  0.05887811  0.55425291  0.18308185    -0.06800
H370        H  0.24218254  0.76654312  0.15788170    -0.07000
C371        C  0.05932427  0.58926486  0.18235512     0.86600
C372        C  0.07085024  0.74635454  0.16843876     0.87200
C373        C  0.20551641  0.73496458  0.16148883     0.87200
H374        H  0.15906420  0.64332137  0.25215037    -0.06900
O375        O  0.08342172  0.67401085  0.25465538    -0.76000
Mg376      Mg  0.16610984  0.62720039  0.17759784     1.58000
H377        H  0.01024253  0.63128665  0.24489062    -0.07000
C378        C  0.95800946  0.60321225  0.14457389     0.92200
O379        O  0.11406006  0.63588649  0.11906798    -0.83200
C380        C  0.14910417  0.62482983  0.11760074     0.92300
O381        O  0.00464959  0.75917924  0.22698948    -0.83200
Mg382      Mg  0.16542561  0.73793725  0.25543369     1.58200
O383        O  0.00166595  0.61228114  0.13748306    -0.81500
O384        O  0.29947347  0.79003959  0.23675342    -0.83200
O385        O  0.58683169  0.92661796  0.91897823    -0.88800
C386        C  0.70202972  0.97811284  0.87235799     0.87200
Mg387      Mg  0.51273110  0.87413674  0.91049310     1.58100
O388        O  0.63804800  0.04464403  0.88340126    -0.88500
O389        O  0.62324793  0.99983211  0.93480314    -0.75900
C390        C  0.47683371  0.92052520  0.79671626     0.92300
O391        O  0.60040986  0.86117024  0.87896424    -0.75700
O392        O  0.45487826  0.88196888  0.80999197    -0.83200
Mg393      Mg  0.64422078  0.90866345  0.91066788     1.58000
C394        C  0.62563153  0.11188163  0.82307608     0.92200
O395        O  0.69275174  0.95190855  0.94330126    -0.81400
H396        H  0.61571605  0.08245287  0.90426640    -0.06800
C397        C  0.60306606  0.96038425  0.82495908     0.87100
O398        O  0.49261994  0.93307111  0.89950473    -0.76000
O399        O  0.67604837  0.97400457  0.88992329    -0.88700
O400        O  0.64221185  0.11186620  0.84344824    -0.81500
C401        C  0.76774147  0.12409407  0.88177112     0.92300
C402        C  0.72798827  0.99603767  0.94772309     0.92200
Mg403      Mg  0.53949246  0.00705391  0.83989313     1.58000
O404        O  0.50706094  0.96276391  0.80568410    -0.81400
O405        O  0.57204119  0.05265749  0.87500755    -0.75700
O406        O  0.75596932  0.08006461  0.88612546    -0.81500
O407        O  0.60625099  0.83724698  0.93162983    -0.83200
O408        O  0.41096775  0.82519061  0.86673364    -0.81600
C409        C  0.60905857  0.06062301  0.88842323     0.86600
O410        O  0.49916593  0.94227812  0.86083285    -0.88700
O411        O  0.60328888  0.99244639  0.83888014    -0.88800
O412        O  0.56673888  0.91578739  0.82510191    -0.75900
Mg413      Mg  0.68751344  0.03868510  0.90849088     1.58000
O414        O  0.74346379  0.13148853  0.86570907    -0.83200
H415        H  0.56319553  0.94039345  0.94956861    -0.07000
O416        O  0.53226755  0.86746597  0.87498412    -0.88500
H417        H  0.54599678  0.82266964  0.85474350    -0.06800
H418        H  0.47125553  0.97554247  0.88121864    -0.07000
C419        C  0.55840173  0.84886002  0.86919295     0.86600
C420        C  0.59009568  0.95449365  0.93523488     0.87200
C421        C  0.48604339  0.95030741  0.88032489     0.87200
H422        H  0.63445740  0.97077139  0.81305908    -0.06900
O423        O  0.70820242  0.00860402  0.85591456    -0.76000
Mg424      Mg  0.49044562  0.87387403  0.84580773     1.58000
H425        H  0.72053555  0.95614656  0.87114146    -0.07000
C426        C  0.55981298  0.80409137  0.93247864     0.92200
O427        O  0.43511323  0.82134952  0.90340771    -0.83200
C428        C  0.40089227  0.80870381  0.88812189     0.92300
O429        O  0.73776862  0.03160202  0.93389461    -0.83200
Mg430      Mg  0.67457479  0.06097633  0.85019053     1.58200
O431        O  0.52488799  0.81103229  0.92429650    -0.81500
O432        O  0.58431377  0.07517917  0.81639916    -0.83200
O433        O  0.35369251  0.94461830  0.57396821    -0.88800
C434        C  0.29822173  0.00334495  0.62075251     0.87200
Mg435      Mg  0.36950002  0.88809492  0.58090022     1.58100
O436        O  0.42759143  0.06084782  0.60800784    -0.88500
O437        O  0.39258514  0.01671300  0.55722341    -0.75900
C438        C  0.45744217  0.92702724  0.69297212     0.92300
O439        O  0.27355189  0.88403424  0.61436524    -0.75700
O440        O  0.43760708  0.88858770  0.67947978    -0.83200
Mg441      Mg  0.27984475  0.93159401  0.58239756     1.58000
C442        C  0.51369852  0.12322671  0.66773238     0.92200
O443        O  0.28093191  0.97568867  0.54907043    -0.81400
H444        H  0.48749978  0.09408451  0.58652841    -0.06800
C445        C  0.37741837  0.97834077  0.66608462     0.87100
O446        O  0.45130649  0.94167883  0.59074144    -0.76000
O447        O  0.31761975  0.99716174  0.60279677    -0.88700
O448        O  0.49714480  0.12479185  0.64754848    -0.81500
C449        C  0.38701389  0.14855944  0.61049780     0.92300
C450        C  0.29263871  0.02036330  0.54428959     0.92200
Mg451      Mg  0.48361133  0.01568941  0.65046405     1.58000
O452        O  0.47076217  0.96988105  0.68449500    -0.81400
O453        O  0.49873190  0.06179732  0.61546422    -0.75700
O454        O  0.35152252  0.10561504  0.60628302    -0.81500
O455        O  0.23987713  0.85920974  0.56211644    -0.83200
O456        O  0.41301043  0.82672497  0.62252900    -0.81600
C457        C  0.47153269  0.07292202  0.60245094     0.86600
O458        O  0.45415159  0.95026665  0.62931674    -0.88700
O459        O  0.41089931  0.01012327  0.65341014    -0.88800
O460        O  0.36643937  0.93288167  0.66542626    -0.75900
Mg461      Mg  0.37256655  0.05934525  0.58374844     1.58000
O462        O  0.41960891  0.15293090  0.62566937    -0.83200
H463        H  0.38913480  0.95507495  0.54299157    -0.07000
O464        O  0.34455505  0.88198608  0.61661722    -0.88500
H465        H  0.28614039  0.84267785  0.63809294    -0.06800
H466        H  0.51618429  0.97869037  0.60933649    -0.07000
C467        C  0.30083730  0.86792948  0.62334634     0.86600
C468        C  0.37837820  0.97097966  0.55732480     0.87200
C469        C  0.47550678  0.95665219  0.60999619     0.87200
H470        H  0.35718761  0.98937415  0.67810894    -0.06900
O471        O  0.32542095  0.03261074  0.63710607    -0.76000
Mg472      Mg  0.39258976  0.88388496  0.64458944     1.58000
H473        H  0.25759518  0.98429017  0.62241433    -0.07000
C474        C  0.25007043  0.82406634  0.56162610     0.92200
O475        O  0.38683030  0.83024096  0.58633662    -0.83200
C476        C  0.40336087  0.81120913  0.60087262     0.92300
O477        O  0.31445592  0.05481388  0.55924334    -0.83200
Mg478      Mg  0.41277533  0.07907926  0.64168068     1.58200
O479        O  0.29192194  0.82957598  0.56879000    -0.81500
O480        O  0.51428245  0.08441597  0.67414822    -0.83200
O481        O  0.69206122  0.60759551  0.08092995    -0.88800
C482        C  0.75047482  0.72075215  0.03391656     0.87200
Mg483      Mg  0.67438511  0.53452760  0.07353230     1.58100
O484        O  0.62006842  0.65072226  0.04525966    -0.88500
O485        O  0.65325062  0.64267479  0.09721608    -0.75900
C486        C  0.58342979  0.48830381  0.96141634     0.92300
O487        O  0.77004234  0.62192223  0.04010870    -0.75700
O488        O  0.60274823  0.46923353  0.97515778    -0.83200
Mg489      Mg  0.76611275  0.66562136  0.07189373     1.58000
C490        C  0.53772050  0.63862039  0.98468325     0.92200
O491        O  0.77109051  0.71432391  0.10455123    -0.81400
H492        H  0.55849699  0.63482778  0.06528155    -0.06800
C493        C  0.66969809  0.61746212  0.98685088     0.87100
O494        O  0.59291361  0.51168922  0.06330932    -0.76000
O495        O  0.72978396  0.69559954  0.05168022    -0.88700
O496        O  0.55405172  0.65573521  0.00498797    -0.81500
C497        C  0.66640683  0.78378248  0.04275289     0.92300
C498        C  0.75955027  0.74787580  0.10932893     0.92200
Mg499      Mg  0.55984050  0.55496832  0.00285534     1.58000
O500        O  0.57150629  0.51973967  0.96927454    -0.81400
O501        O  0.54403503  0.58848842  0.03711228    -0.75700
O502        O  0.69908754  0.77221402  0.04822278    -0.81500
O503        O  0.80392730  0.63097300  0.09218273    -0.83200
O504        O  0.62255881  0.43138084  0.03200581    -0.81600
C505        C  0.57345260  0.62530653  0.05007790     0.86600
O506        O  0.58794718  0.51753386  0.02472584    -0.88700
O507        O  0.63768075  0.61906028  0.00056245    -0.88800
O508        O  0.67890991  0.58158236  0.98770996    -0.75900
Mg509      Mg  0.67484775  0.70494153  0.07083592     1.58000
O510        O  0.63359704  0.75755323  0.02746352    -0.83200
H511        H  0.65570028  0.58423708  0.11171631    -0.07000
O512        O  0.69803179  0.55209280  0.03771499    -0.88500
H513        H  0.75612126  0.56786726  0.01627896    -0.06800
H514        H  0.52742089  0.48971058  0.04572149    -0.07000
C515        C  0.74191572  0.57952937  0.03101545     0.86600
C516        C  0.66716386  0.61052274  0.09738165     0.87200
C517        C  0.56778000  0.50487676  0.04441244     0.87200
H518        H  0.68984717  0.64715806  0.97437813    -0.06900
O519        O  0.72474641  0.72492752  0.01725237    -0.76000
Mg520      Mg  0.64853842  0.50810306  0.00969397     1.58000
H521        H  0.79116843  0.74008066  0.03265718    -0.07000
C522        C  0.79411975  0.58611302  0.09317238     0.92200
O523        O  0.65378979  0.45769320  0.06801938    -0.83200
C524        C  0.63185480  0.42295153  0.05327499     0.92300
O525        O  0.73087331  0.75558590  0.09607647    -0.83200
Mg526      Mg  0.63806396  0.68979123  0.01148677     1.58200
O527        O  0.75265394  0.55005205  0.08589828    -0.81500
O528        O  0.53372028  0.59744141  0.97850841    -0.83200
O529        O  0.44957162  0.34971941  0.73729607    -0.88800
C530        C  0.33418347  0.27723591  0.78299568     0.87200
Mg531      Mg  0.52499638  0.37265047  0.74540872     1.58100
O532        O  0.38621883  0.40455355  0.77290791    -0.88500
O533        O  0.40570327  0.38018831  0.72176855    -0.75900
C534        C  0.55568142  0.45399172  0.85862986     0.92300
O535        O  0.44048309  0.27021230  0.77547965    -0.75700
O536        O  0.57920262  0.43879329  0.84512636    -0.83200
Mg537      Mg  0.39593365  0.27381265  0.74362431     1.58000
C538        C  0.39483647  0.48456381  0.83219582     0.92200
O539        O  0.35041450  0.27282680  0.71023165    -0.81400
H540        H  0.40444967  0.46309478  0.75205998    -0.06800
C541        C  0.43014961  0.36113988  0.83127522     0.87100
O542        O  0.54081755  0.44976535  0.75674380    -0.76000
O543        O  0.35846543  0.30064445  0.76545456    -0.88700
O544        O  0.37653885  0.46341484  0.81274851    -0.81500
C545        C  0.25440175  0.34573269  0.77554758     0.92300
C546        C  0.31163010  0.27733550  0.70619375     0.92200
Mg547      Mg  0.48538798  0.46968895  0.81598164     1.58000
O548        O  0.52194345  0.46249913  0.85012629    -0.81400
O549        O  0.44946058  0.47884241  0.78100923    -0.75700
O550        O  0.27041793  0.31669382  0.77031107    -0.81500
O551        O  0.43832768  0.24567326  0.72185720    -0.83200
O552        O  0.62499236  0.42834152  0.78888205    -0.81600
C553        C  0.41281990  0.44904304  0.76783312     0.86600
O554        O  0.52967239  0.44889254  0.79513044    -0.88700
O555        O  0.42636510  0.39089462  0.81731162    -0.88800
O556        O  0.46908427  0.35591870  0.83099115    -0.75900
Mg557      Mg  0.33962679  0.34917142  0.74775154     1.58000
O558        O  0.27786610  0.37810622  0.79130727    -0.83200
H559        H  0.47124467  0.38991028  0.70764877    -0.07000
O560        O  0.50555454  0.34486689  0.78063237    -0.88500
H561        H  0.49448824  0.28689573  0.80024175    -0.06800
H562        H  0.55696537  0.51085190  0.77604237    -0.07000
C563        C  0.48132797  0.30032255  0.78585926     0.86600
C564        C  0.44351225  0.37364873  0.72155562     0.87200
C565        C  0.54402026  0.47153622  0.77621047     0.87200
H566        H  0.39962909  0.33931462  0.84333460    -0.06900
O567        O  0.32544136  0.29896535  0.79999479    -0.76000
Mg568      Mg  0.54510428  0.39351690  0.80989743     1.58000
H569        H  0.31943805  0.23763148  0.78373095    -0.07000
C570        C  0.48511586  0.25934747  0.72215925     0.92200
O571        O  0.60392425  0.39876852  0.75227065    -0.83200
C572        C  0.63694516  0.42263365  0.76767324     0.92300
O573        O  0.29226834  0.29089429  0.72223773    -0.83200
Mg574      Mg  0.35148143  0.38252556  0.80624125     1.58200
O575        O  0.51790392  0.30011047  0.73134141    -0.81500
O576        O  0.43708939  0.49066771  0.83908188    -0.83200
C577        C  0.60397589  0.45948585  0.92278866    -0.26800
C578        C  0.57473799  0.47550687  0.93546500    -0.14800
C579        C  0.53967765  0.48345450  0.92256844     0.35800
C580        C  0.53550621  0.47679567  0.89800051    -0.26200
C581        C  0.56505270  0.46163613  0.88500934    -0.15500
C582        C  0.59949477  0.45240151  0.89796573     0.36900
N583        N  0.63055825  0.43597237  0.88659092    -0.89700
H584        H  0.63135787  0.45337571  0.93213274     0.18000
H585        H  0.50802582  0.48347830  0.88911587     0.18000
N586        N  0.50728195  0.49789301  0.93433093    -0.88700
H587        H  0.65283291  0.46227498  0.87397041     0.35400
H588        H  0.60723470  0.40221585  0.87819014     0.40500
H589        H  0.46988587  0.47106178  0.93085583     0.40100
H590        H  0.51353623  0.53140576  0.92709660     0.35000
C591        C  0.49659278  0.14721920  0.70639934    -0.26800
C592        C  0.52216162  0.16237868  0.68476534    -0.14800
C593        C  0.54290610  0.21241473  0.67763036     0.35800
C594        C  0.53250065  0.24434592  0.69094578    -0.26200
C595        C  0.50194890  0.22733430  0.71105236    -0.15500
C596        C  0.48548933  0.17908085  0.71947116     0.36900
N597        N  0.45673331  0.16235127  0.74093712    -0.89700
H598        H  0.48086458  0.10899414  0.71194454     0.18000
H599        H  0.54619089  0.28195283  0.68486355     0.18000
N600        N  0.57270254  0.23134263  0.65655580    -0.88700
H601        H  0.44913847  0.12649423  0.74506194     0.35400
H602        H  0.42180224  0.15999837  0.73798780     0.40500
H603        H  0.58066326  0.20519672  0.64908653     0.40100
H604        H  0.60767583  0.26101549  0.66152175     0.35000
C605        C  0.56736940  0.72840202  0.93503887    -0.26800
C606        C  0.54602237  0.75627998  0.94362630    -0.14800
C607        C  0.51425153  0.73972744  0.96355689     0.35800
C608        C  0.50757105  0.69738966  0.97559771    -0.26200
C609        C  0.53137039  0.67108461  0.96781737    -0.15500
C610        C  0.55977566  0.68542238  0.94677485     0.36900
N611        N  0.58416459  0.65871350  0.93851802    -0.89700
H612        H  0.59122234  0.74107895  0.91951634     0.18000
H613        H  0.48626615  0.68658530  0.99192248     0.18000
N614        N  0.49127166  0.76747554  0.97221955    -0.88700
H615        H  0.60555107  0.67547940  0.92341903     0.35400
H616        H  0.55589632  0.62347791  0.93335930     0.40500
H617        H  0.52016729  0.80200691  0.97787618     0.40100
H618        H  0.46894851  0.75018603  0.98701058     0.35000
C619        C  0.49353856  0.96414962  0.75781607    -0.26800
C620        C  0.46977428  0.91881102  0.77011726    -0.14800
C621        C  0.44402555  0.87480277  0.75645591     0.35800
C622        C  0.44105962  0.87768343  0.73139377    -0.26200
C623        C  0.46440314  0.92352364  0.71932393    -0.15500
C624        C  0.49176969  0.96699012  0.73314591     0.36900
N625        N  0.51855944  0.01490124  0.72233210    -0.89700
H626        H  0.51461792  0.99869638  0.76738199     0.18000
H627        H  0.42010279  0.84388730  0.72128659     0.18000
N628        N  0.42117094  0.82735438  0.76787447    -0.88700
H629        H  0.55661496  0.03099639  0.72699558     0.35400
H630        H  0.50451863  0.03702081  0.72916695     0.40500
H631        H  0.45023275  0.82284914  0.77500555     0.40100
H632        H  0.40285549  0.79889671  0.75552326     0.35000
C633        C  0.86591908  0.55550711  0.13742168    -0.26800
C634        C  0.91496610  0.58248531  0.12809846    -0.14800
C635        C  0.92154847  0.60109079  0.10492127     0.35800
C636        C  0.88021315  0.59815643  0.09279891    -0.26200
C637        C  0.83242966  0.57624317  0.10330764    -0.15500
C638        C  0.82433212  0.55198589  0.12512631     0.36900
N639        N  0.77495478  0.52803166  0.13563010    -0.89700
H640        H  0.86069478  0.54085847  0.15516582     0.18000
H641        H  0.88613949  0.61606686  0.07578240     0.18000
N642        N  0.97076847  0.62726864  0.09453453    -0.88700
H643        H  0.77586805  0.51373427  0.15218231     0.35400
H644        H  0.75162597  0.49764976  0.12501418     0.40500
H645        H  0.97860053  0.66332257  0.09070180     0.40100
H646        H  0.96994679  0.60976908  0.07862815     0.35000
C647        C  0.33066531  0.51013641  0.83539033    -0.26800
C648        C  0.36349605  0.49762101  0.84696063    -0.14800
C649        C  0.35715727  0.48655856  0.87126902     0.35800
C650        C  0.31507496  0.48364458  0.88287139    -0.26200
C651        C  0.27970251  0.49124004  0.87054447    -0.15500
C652        C  0.28863983  0.50691400  0.84683794     0.36900
N653        N  0.25445099  0.51655886  0.83339583    -0.89700
H654        H  0.33561879  0.51897686  0.81674259     0.18000
H655        H  0.30812661  0.47243315  0.90121025     0.18000
N656        N  0.39099709  0.47475961  0.88362727    -0.99500
H657        H  0.27410986  0.55371114  0.82820723     0.35400
H658        H  0.22397313  0.51238651  0.84350163     0.40500
H659        H  0.38586049  0.44116081  0.87692339     0.40100
H660        H  0.38157581  0.46878485  0.90152106     0.35000
C661        C  0.16993058  0.63404301  0.05145932    -0.26800
C662        C  0.14890752  0.58390958  0.04535009    -0.14800
C663        C  0.13673455  0.54866247  0.06365921     0.35800
C664        C  0.14255622  0.56378097  0.08738971    -0.26200
C665        C  0.15969964  0.61341540  0.09348781    -0.15500
C666        C  0.17517353  0.64923056  0.07519349     0.36900
N667        N  0.19452705  0.70106006  0.07999247    -0.89700
H668        H  0.18007111  0.66149172  0.03767211     0.18000
H669        H  0.13028934  0.53597432  0.10112947     0.18000
N670        N  0.11804719  0.49718958  0.05870844    -0.88700
H671        H  0.23097304  0.72030091  0.07297434     0.35400
H672        H  0.19849044  0.70840700  0.09807042     0.40500
H673        H  0.14383690  0.49408314  0.04765717     0.40100
H674        H  0.08353981  0.48291281  0.04994512     0.35000
C675        C  0.34319246  0.76801406  0.92213837    -0.26800
C676        C  0.34944942  0.77301843  0.89728585    -0.14800
C677        C  0.31018286  0.73868106  0.88296143     0.35800
C678        C  0.26965259  0.69680902  0.89356048    -0.26200
C679        C  0.26792010  0.68792928  0.91818794    -0.15500
C680        C  0.30393469  0.72571723  0.93263057     0.36900
N681        N  0.30403818  0.72094589  0.95774674    -0.89700
H682        H  0.37161747  0.79534705  0.93372538     0.18000
H683        H  0.24086216  0.66918825  0.88222794     0.18000
N684        N  0.31298964  0.74451581  0.85779144    -0.88700
H685        H  0.30742531  0.68988646  0.96178581     0.35400
H686        H  0.26975445  0.71580096  0.96435321     0.40500
H687        H  0.31120684  0.77655918  0.85400780     0.40100
H688        H  0.28154570  0.71511794  0.84977026     0.35000
C689        C  0.84066736  0.15448406  0.90884828    -0.26800
C690        C  0.80562299  0.16383725  0.89715105    -0.14800
C691        C  0.80352253  0.20714058  0.90292209     0.35800
C692        C  0.83727470  0.24044689  0.91981772    -0.26200
C693        C  0.87338578  0.23165229  0.93069780    -0.15500
C694        C  0.87459332  0.18791268  0.92538633     0.36900
N695        N  0.91114572  0.17820195  0.93652062    -0.89700
H696        H  0.84185684  0.12087768  0.90495576     0.18000
H697        H  0.83726311  0.27470165  0.92354129     0.18000
N698        N  0.76690965  0.21689735  0.89195528    -0.88700
H699        H  0.90731780  0.14457254  0.93061230     0.35400
H700        H  0.90326664  0.17414842  0.95458806     0.40500
H701        H  0.77685802  0.22446353  0.87418126     0.40100
H702        H  0.76885067  0.24894348  0.89902124     0.35000
C703        C  0.30922383  0.27570449  0.64010622    -0.26800
C704        C  0.29023626  0.30836186  0.63622733    -0.14800
C705        C  0.26460140  0.31697662  0.65464908     0.35800
C706        C  0.26560589  0.29961760  0.67725059    -0.26200
C707        C  0.29320762  0.27513877  0.68189202    -0.15500
C708        C  0.31140233  0.25934713  0.66284380     0.36900
N709        N  0.33479807  0.22957980  0.66678775    -0.89700
H710        H  0.32630724  0.26607840  0.62575138     0.18000
H711        H  0.24911680  0.31009912  0.69154983     0.18000
N712        N  0.24028111  0.34579971  0.65094961    -0.88700
H713        H  0.34693634  0.22189858  0.65086324     0.35400
H714        H  0.30716899  0.19554935  0.67354449     0.40500
H715        H  0.25692011  0.37661336  0.66214994     0.40100
H716        H  0.20240394  0.32424735  0.65581671     0.35000
C717        C  0.45549312  0.73115333  0.57415436    -0.26800
C718        C  0.41673794  0.70217508  0.55791109    -0.14800
C719        C  0.37336596  0.70748925  0.55779767     0.35800
C720        C  0.36917134  0.73939360  0.57403307    -0.26200
C721        C  0.40798164  0.76930602  0.59008367    -0.15500
C722        C  0.45226830  0.76520366  0.58983430     0.36900
N723        N  0.49473208  0.79486366  0.60476899    -0.89700
H724        H  0.48788590  0.72571161  0.57535699     0.18000
H725        H  0.33502473  0.74205134  0.57350589     0.18000
N726        N  0.33135382  0.67903275  0.54231389    -0.88700
H727        H  0.49917427  0.77081798  0.61612329     0.35400
H728        H  0.48829226  0.81860489  0.61540557     0.40500
H729        H  0.33906922  0.65782003  0.53048644     0.40100
H730        H  0.32625689  0.70407534  0.53198901     0.35000
C731        C  0.34499213  0.18629905  0.58786333    -0.26800
C732        C  0.39038767  0.19024920  0.59589019    -0.14800
C733        C  0.43631496  0.22836921  0.58648456     0.35800
C734        C  0.43554721  0.26151603  0.56947110    -0.26200
C735        C  0.38986259  0.25767117  0.56180423    -0.15500
C736        C  0.34411839  0.21922826  0.57115228     0.36900
N737        N  0.29656704  0.21372783  0.56364050    -0.89700
H738        H  0.30954076  0.15664436  0.59452566     0.18000
H739        H  0.47077034  0.29136026  0.56274129     0.18000
N740        N  0.48337267  0.23234954  0.59356917    -0.88700
H741        H  0.26649051  0.18351341  0.57196260     0.35400
H742        H  0.29288409  0.20590273  0.54558432     0.40500
H743        H  0.48878824  0.24243291  0.61137832     0.40100
H744        H  0.51336246  0.26101960  0.58441583     0.35000
C745        C  0.51183780  0.60883799  0.42333820    -0.26800
C746        C  0.46417721  0.59592291  0.43267286    -0.14800
C747        C  0.42634486  0.59163518  0.41651486     0.35800
C748        C  0.43744198  0.59989657  0.39198195    -0.26200
C749        C  0.48487333  0.61116654  0.38268627    -0.15500
C750        C  0.52284785  0.61713027  0.39900228     0.36900
N751        N  0.57310272  0.63209276  0.39089855    -0.89700
H752        H  0.54113864  0.61237977  0.43528795     0.18000
H753        H  0.40791421  0.59554553  0.37998978     0.18000
N754        N  0.37578650  0.57706634  0.42392735    -0.88700
H755        H  0.59628775  0.63412653  0.40490946     0.35400
H756        H  0.58834722  0.66802255  0.38418889     0.40500
H757        H  0.37084417  0.57007727  0.44196611     0.40100
H758        H  0.35154834  0.54348224  0.41558699     0.35000
C759        C  0.29927329  0.64524666  0.24620896    -0.26800
C760        C  0.29551549  0.63237028  0.22197345    -0.14800
C761        C  0.32336231  0.61025448  0.21383041     0.35800
C762        C  0.35737493  0.60617462  0.22918784    -0.26200
C763        C  0.36620545  0.62557601  0.25247693    -0.15500
C764        C  0.33457610  0.64288951  0.26127321     0.36900
N765        N  0.34034062  0.66225114  0.28471261    -0.89700
H766        H  0.27708912  0.66095216  0.25317276     0.18000
H767        H  0.38135549  0.59272695  0.22199120     0.18000
N768        N  0.32116171  0.59548475  0.18972814    -0.88700
H769        H  0.37693093  0.69213626  0.28655788     0.35400
H770        H  0.33574570  0.63450488  0.29651676     0.40500
H771        H  0.33128439  0.62635371  0.17900163     0.40100
H772        H  0.28394680  0.56876428  0.18588966     0.35000
C773        C  0.88168291  0.76727588  0.25447052    -0.26800
C774        C  0.84212247  0.72126004  0.26207170    -0.14800
C775        C  0.83943210  0.67750296  0.25310952     0.35800
C776        C  0.87654490  0.68082905  0.23706995    -0.26200
C777        C  0.91704484  0.72694002  0.23010662    -0.15500
C778        C  0.91921037  0.77046395  0.23895741     0.36900
N779        N  0.95964679  0.81814583  0.23224915    -0.89700
H780        H  0.88345734  0.80119865  0.26061639     0.18000
H781        H  0.87518548  0.64712024  0.23090628     0.18000
N782        N  0.79825055  0.62990114  0.25969549    -0.88700
H783        H  0.97834043  0.83706868  0.24757566     0.35400
H784        H  0.94401416  0.83785020  0.22434628     0.40500
H785        H  0.80215755  0.62487168  0.27763273     0.40100
H786        H  0.80060869  0.60157614  0.25079076     0.35000
C787        C  0.79999612  0.76252434  0.14878618    -0.26800
C788        C  0.77465002  0.77514893  0.13200421    -0.14800
C789        C  0.75551572  0.80668114  0.13885312     0.35800
C790        C  0.75227630  0.81555324  0.16279018    -0.26200
C791        C  0.76918568  0.79483632  0.17992257    -0.15500
C792        C  0.79822569  0.77287836  0.17270578     0.36900
N793        N  0.82289784  0.75778812  0.18958239    -0.89700
H794        H  0.81762255  0.74095642  0.14371053     0.18000
H795        H  0.73265510  0.83519855  0.16794698     0.18000
N796        N  0.73622234  0.82709444  0.12181042    -0.88700
H797        H  0.86134264  0.77553237  0.18546320     0.35400
H798        H  0.80850185  0.71957584  0.18787368     0.40500
H799        H  0.75597974  0.86567534  0.12358270     0.40100
H800        H  0.69827325  0.81463327  0.12568084     0.35000
C801        C  0.49751441  0.35396874  0.47919206    -0.26800
C802        C  0.51436876  0.40160809  0.46994192    -0.14800
C803        C  0.53087022  0.41109267  0.44630264     0.35800
C804        C  0.52837270  0.37242983  0.43228080    -0.26200
C805        C  0.50882392  0.32425928  0.44140640    -0.15500
C806        C  0.49418756  0.31531299  0.46530243     0.36900
N807        N  0.47608730  0.26699220  0.47550561    -0.89700
H808        H  0.48562537  0.34612509  0.49739230     0.18000
H809        H  0.54052869  0.37982163  0.41404864     0.18000
N810        N  0.54989864  0.45951890  0.43642652    -0.88700
H811        H  0.46566126  0.26640993  0.49313416     0.35400
H812        H  0.50605235  0.25964960  0.47550732     0.40500
H813        H  0.52768493  0.45657217  0.42182925     0.40100
H814        H  0.58662715  0.47165230  0.43044062     0.35000
C815        C  0.33188837  0.83253558  0.29384257    -0.26800
C816        C  0.33366458  0.84322390  0.26981142    -0.14800
C817        C  0.37158191  0.88911409  0.26113828     0.35800
C818        C  0.40245404  0.92626534  0.27729297    -0.26200
C819        C  0.39604484  0.91764896  0.30176200    -0.15500
C820        C  0.36359288  0.86889052  0.30991332     0.36900
N821        N  0.36060205  0.85724724  0.33460404    -0.89700
H822        H  0.30381176  0.79633681  0.30021857     0.18000
H823        H  0.42825201  0.96310218  0.27079295     0.18000
N824        N  0.37556298  0.89919472  0.23626806    -0.88700
H825        H  0.39570793  0.86207361  0.33964448     0.35400
H826        H  0.33423347  0.81998881  0.33759485     0.40500
H827        H  0.38663574  0.87580201  0.22815769     0.40100
H828        H  0.40424149  0.93542445  0.23291093     0.35000
C829        C  0.32345669  0.10308667  0.49198210    -0.26800
C830        C  0.32497315  0.07190095  0.47457611    -0.14800
C831        C  0.30152187  0.02017469  0.47880811     0.35800
C832        C  0.28427603  0.00230846  0.50157461    -0.26200
C833        C  0.28926841  0.03483206  0.51987638    -0.15500
C834        C  0.30462547  0.08474929  0.51442374     0.36900
N835        N  0.30364986  0.11760019  0.53193856    -0.89700
H836        H  0.33871879  0.14224474  0.48845564     0.18000
H837        H  0.27104813  0.96362107  0.50540605     0.18000
N838        N  0.29890145  0.98648906  0.46065054    -0.88700
H839        H  0.28097832  0.13153216  0.52559864     0.35400
H840        H  0.34031667  0.14731178  0.53394686     0.40500
H841        H  0.27266431  0.98425401  0.44817330     0.40100
H842        H  0.28450581  0.95063922  0.46734353     0.35000
C843        C  0.78748419  0.05954345  0.97566330    -0.26800
C844        C  0.75496867  0.00894709  0.97055458    -0.14800
C845        C  0.74154176  0.97413029  0.98883359     0.35800
C846        C  0.75268067  0.99092937  0.01210510    -0.26200
C847        C  0.77490797  0.04188066  0.01736853    -0.15500
C848        C  0.79710278  0.07653549  0.99900732     0.36900
N849        N  0.82563839  0.12875279  0.00398637    -0.89700
H850        H  0.80110959  0.08665819  0.96158950     0.18000
H851        H  0.73822516  0.96354385  0.02606166     0.18000
N852        N  0.71333070  0.92198001  0.98414645    -0.88700
H853        H  0.83798654  0.14920327  0.98837773     0.35400
H854        H  0.85797270  0.13513432  0.01319499     0.40500
H855        H  0.67932770  0.90720221  0.99347265     0.40100
H856        H  0.73382527  0.90579105  0.99066447     0.35000
C857        C  0.84842244  0.35984897  0.01215979    -0.26800
C858        C  0.89932389  0.38195904  0.01873604    -0.14800
C859        C  0.91369056  0.36265586  0.03778695     0.35800
C860        C  0.87689568  0.32004468  0.04927434    -0.26200
C861        C  0.82636437  0.29659788  0.04201279    -0.15500
C862        C  0.81148334  0.31754704  0.02383151     0.36900
N863        N  0.75981146  0.29385053  0.01615737    -0.89700
H864        H  0.83796622  0.37422441  0.99708892     0.18000
H865        H  0.88791946  0.30393643  0.06340563     0.18000
N866        N  0.96594097  0.38431877  0.04432294    -0.88700
H867        H  0.75602014  0.31223355  0.00154936     0.35400
H868        H  0.73864581  0.29769602  0.02968028     0.40500
H869        H  0.98506770  0.37882120  0.03033989     0.40100
H870        H  0.96996911  0.36589422  0.05884893     0.35000
C871        C  0.57090249  0.18118227  0.22348555    -0.26800
C872        C  0.59611362  0.15695051  0.21470894    -0.14800
C873        C  0.61894359  0.13964357  0.23123055     0.35800
C874        C  0.61369124  0.14435989  0.25563123    -0.26200
C875        C  0.58550719  0.16542195  0.26437948    -0.15500
C876        C  0.56459516  0.18473789  0.24806570     0.36900
N877        N  0.53452050  0.20541181  0.25657103    -0.89700
H878        H  0.55356981  0.19483434  0.21114493     0.18000
H879        H  0.62895587  0.12836751  0.26784518     0.18000
N880        N  0.64756440  0.11675834  0.22381589    -0.88700
H881        H  0.52104879  0.21724501  0.24249454     0.35400
H882        H  0.55812963  0.23699670  0.26643601     0.40500
H883        H  0.67604540  0.14093816  0.21239243     0.40100
H884        H  0.62390072  0.08389289  0.21485562     0.35000
C885        C  0.61350406  0.29243618  0.06039854    -0.26800
C886        C  0.61676373  0.28944757  0.08531535    -0.14800
C887        C  0.61534725  0.32630703  0.09914938     0.35800
C888        C  0.61535640  0.36687425  0.08790882    -0.26200
C889        C  0.61830895  0.37279872  0.06298529    -0.15500
C890        C  0.61545522  0.33391980  0.04914649     0.36900
N891        N  0.61744074  0.33764697  0.02386621    -0.89700
H892        H  0.61298441  0.26363002  0.04937613     0.18000
H893        H  0.61593637  0.39571763  0.09892583     0.18000
N894        N  0.61729263  0.32438786  0.12441737    -0.88700
H895        H  0.61422211  0.30547297  0.01627601     0.35400
H896        H  0.65319488  0.36650008  0.01926211     0.40500
H897        H  0.58373705  0.29365345  0.13002297     0.40100
H898        H  0.61807523  0.35549837  0.13200185     0.35000
C899        C  0.62182989  0.81645284  0.06787276    -0.26800
C900        C  0.66590897  0.82466758  0.05610475    -0.14800
C901        C  0.71184994  0.86790326  0.06124264     0.35800
C902        C  0.71317365  0.90111744  0.07843289    -0.26200
C903        C  0.66961445  0.89248394  0.09086490    -0.15500
C904        C  0.62311457  0.85007212  0.08514049     0.36900
N905        N  0.57744584  0.84138453  0.09666056    -0.89700
H906        H  0.58671401  0.78278724  0.06424722     0.18000
H907        H  0.74880963  0.93409103  0.08222257     0.18000
N908        N  0.75733509  0.87743434  0.04919822    -0.88700
H909        H  0.54683949  0.80818692  0.09075661     0.35400
H910        H  0.57027937  0.86965996  0.09155530     0.40500
H911        H  0.78800670  0.91064388  0.05504962     0.40100
H912        H  0.75260859  0.88224444  0.03132816     0.35000
C913        C  0.57275650  0.88447476  0.21616475    -0.26800
C914        C  0.55592199  0.83756493  0.20605851    -0.14800
C915        C  0.52812344  0.82517074  0.18477059     0.35800
C916        C  0.52117411  0.86138091  0.17338214    -0.26200
C917        C  0.54115367  0.90952286  0.18264419    -0.15500
C918        C  0.56521008  0.92050529  0.20480770     0.36900
N919        N  0.58561700  0.96935175  0.21472997    -0.89700
H920        H  0.59359385  0.89361821  0.23259552     0.18000
H921        H  0.50281378  0.85278871  0.15630409     0.18000
N922        N  0.50884214  0.77760147  0.17350794    -0.88700
H923        H  0.60430077  0.97198612  0.23056354     0.35400
H924        H  0.55523445  0.97462700  0.21899759     0.40500
H925        H  0.51649984  0.75359369  0.18319183     0.40100
H926        H  0.52754637  0.78318329  0.15736999     0.35000
C927        C  0.98724345  0.71392114  0.32534610    -0.26800
C928        C  0.01251721  0.72009107  0.34664319    -0.14800
C929        C  0.06587446  0.74896259  0.34733806     0.35800
C930        C  0.09281261  0.76794341  0.32646529    -0.26200
C931        C  0.06773752  0.75850820  0.30486285    -0.15500
C932        C  0.01415709  0.73294411  0.30445405     0.36900
N933        N  0.98664672  0.72366643  0.28281031    -0.89700
H934        H  0.94639253  0.69275547  0.32473159     0.18000
H935        H  0.13368817  0.78779643  0.32708722     0.18000
N936        N  0.09325216  0.75676600  0.36892606    -0.88700
H937        H  0.96277683  0.73876896  0.28423320     0.35400
H938        H  0.96421477  0.68532739  0.28063371     0.40500
H939        H  0.11526964  0.79496267  0.37171810     0.40100
H940        H  0.11752392  0.74223494  0.36697149     0.35000
C941        C  0.71838567  0.55147303  0.33755868    -0.26800
C942        C  0.67884485  0.55580936  0.34799601    -0.14800
C943        C  0.66999220  0.54703904  0.37252019     0.35800
C944        C  0.70374734  0.53947183  0.38618423    -0.26200
C945        C  0.74668629  0.54157899  0.37597054    -0.15500
C946        C  0.75262667  0.54486814  0.35130081     0.36900
N947        N  0.79444741  0.54326301  0.34041716    -0.89700
H948        H  0.72460411  0.55643007  0.31869406     0.18000
H949        H  0.69851852  0.53586566  0.40513607     0.18000
N950        N  0.62946171  0.54896541  0.38434922    -0.88700
H951        H  0.79373757  0.54687850  0.32211266     0.35400
H952        H  0.78996899  0.50814209  0.34358872     0.40500
H953        H  0.59539538  0.52254788  0.37679665     0.40100
H954        H  0.63377926  0.58426364  0.38213618     0.35000
C955        C  0.78066688  0.36725389  0.40520633    -0.26800
C956        C  0.76968075  0.36139550  0.42969842    -0.14800
C957        C  0.72437421  0.31951720  0.43701670     0.35800
C958        C  0.68987666  0.28807002  0.41984803    -0.26200
C959        C  0.69865926  0.29694057  0.39535868    -0.15500
C960        C  0.74563588  0.33590138  0.38801895     0.36900
N961        N  0.75629826  0.34574344  0.36330846    -0.89700
H962        H  0.81521426  0.39935267  0.39933776     0.18000
H963        H  0.65397971  0.25788128  0.42579596     0.18000
N964        N  0.71003489  0.30975582  0.46141403    -0.88700
H965        H  0.79251487  0.37590898  0.36084266     0.35400
H966        H  0.73111753  0.35621365  0.35650427     0.40500
H967        H  0.73829263  0.33533965  0.47244328     0.40100
H968        H  0.70617035  0.27521309  0.46548292     0.35000
C969        C  0.24150883  0.87076898  0.40863130    -0.26800
C970        C  0.23376797  0.90818454  0.39897221    -0.14800
C971        C  0.18716143  0.90624630  0.40299444     0.35800
C972        C  0.14945291  0.86712001  0.41627777    -0.26200
C973        C  0.15673700  0.82929089  0.42585767    -0.15500
C974        C  0.20364706  0.83137877  0.42193867     0.36900
N975        N  0.21247969  0.79309743  0.43095370    -0.89700
H976        H  0.27780955  0.87292920  0.40626374     0.18000
H977        H  0.11344099  0.86554291  0.41871206     0.18000
N978        N  0.17819639  0.94404880  0.39344368    -0.88700
H979        H  0.24928580  0.80099055  0.42717168     0.35400
H980        H  0.18854615  0.76036281  0.42191152     0.40500
H981        H  0.14216548  0.93747196  0.39800236     0.40100
H982        H  0.17887598  0.94163821  0.37506329     0.35000
C983        C  0.22897287  0.75114430  0.53639766    -0.26800
C984        C  0.21292654  0.77537507  0.55222939    -0.14800
C985        C  0.16174031  0.75302774  0.55868177     0.35800
C986        C  0.12679080  0.70912075  0.54740771    -0.26200
C987        C  0.14197973  0.68856996  0.52922145    -0.15500
C988        C  0.19394778  0.70823304  0.52455467     0.36900
N989        N  0.21204634  0.68669143  0.50732704    -0.89700
H990        H  0.26867451  0.76730083  0.53211022     0.18000
H991        H  0.08692398  0.69421074  0.55095434     0.18000
N992        N  0.14529736  0.77599913  0.57595990    -0.88700
H993        H  0.22730025  0.71158704  0.49329100     0.35400
H994        H  0.18259340  0.65365350  0.50061910     0.40500
H995        H  0.16184686  0.77574380  0.59204919     0.40100
H996        H  0.10626017  0.75512208  0.57841979     0.35000
C997        C  0.95836220  0.23518671  0.81894693    -0.26800
C998        C  0.99567717  0.25318426  0.80146947    -0.14800
C999        C  0.04711650  0.27699100  0.80833148     0.35800
C1000       C  0.05969143  0.29173394  0.83187441    -0.26200
C1001       C  0.02198796  0.28156795  0.84863419    -0.15500
C1002       C  0.97100115  0.24875525  0.84252442     0.36900
N1003       N  0.93148622  0.23167441  0.85977707    -0.89700
H1004       H  0.91884646  0.21451412  0.81410317     0.18000
H1005       H  0.09903212  0.31429983  0.83669195     0.18000
N1006       N  0.08648220  0.28992993  0.79117783    -0.88700
H1007       H  0.91243970  0.19292181  0.85975185     0.35400
H1008       H  0.90595362  0.24318985  0.85470843     0.40500
H1009       H  0.08245116  0.25683400  0.78436995     0.40100
H1010       H  0.12204685  0.30846667  0.79911673     0.35000
C1011       C  0.72394503  0.43701753  0.77425125    -0.26800
C1012       C  0.68970843  0.44100189  0.75944870    -0.14800
C1013       C  0.70280389  0.45211611  0.73510373     0.35800
C1014       C  0.74374402  0.44914392  0.72556823    -0.26200
C1015       C  0.77327862  0.43708066  0.73986445    -0.15500
C1016       C  0.76636469  0.43631619  0.76484414     0.36900
N1017       N  0.80116706  0.43238763  0.78057536    -0.89700
H1018       H  0.71571312  0.43067467  0.79292648     0.18000
H1019       H  0.75014616  0.45289325  0.70669641     0.18000
N1020       N  0.67479089  0.46572651  0.71945975    -0.88700
H1021       H  0.79044887  0.43173568  0.79815826     0.35400
H1022       H  0.83615713  0.46449099  0.77854538     0.40500
H1023       H  0.67044126  0.49383755  0.72738501     0.40100
H1024       H  0.63942159  0.43525495  0.71599472     0.35000
C1025       C  0.14431743  0.30158832  0.73319292    -0.26800
C1026       C  0.14864745  0.34653157  0.72561632    -0.14800
C1027       C  0.18554812  0.39121547  0.73622898     0.35800
C1028       C  0.21751261  0.39000072  0.75369423    -0.26200
C1029       C  0.21397017  0.34507820  0.76077953    -0.15500
C1030       C  0.17667328  0.30034600  0.75045462     0.36900
N1031       N  0.17181935  0.25372826  0.75755244    -0.89700
H1032       H  0.11521631  0.26711750  0.72565990     0.18000
H1033       H  0.24645378  0.42460479  0.76118484     0.18000
N1034       N  0.19057799  0.43819347  0.73013105    -0.88700
H1035       H  0.14270741  0.22441070  0.74827556     0.35400
H1036       H  0.16143427  0.24843528  0.77534289     0.40500
H1037       H  0.15603509  0.43673505  0.73312365     0.40100
H1038       H  0.19946279  0.44463168  0.71221053     0.35000
C1039       C  0.66758516  0.13458983  0.78431449    -0.26800
C1040       C  0.65919927  0.15009377  0.80629130    -0.14800
C1041       C  0.69088344  0.19930070  0.81373105     0.35800
C1042       C  0.73228002  0.23128987  0.79979785    -0.26200
C1043       C  0.74343864  0.21422640  0.77896626    -0.15500
C1044       C  0.71015802  0.16591298  0.77075615     0.36900
N1045       N  0.71995825  0.14870306  0.74887207    -0.89700
H1046       H  0.64337676  0.09662426  0.77865829     0.18000
H1047       H  0.75743354  0.26866350  0.80596774     0.18000
N1048       N  0.68196840  0.21630631  0.83577816    -0.88700
H1049       H  0.69058750  0.11312214  0.74490924     0.35400
H1050       H  0.75215566  0.14540386  0.75116554     0.40500
H1051       H  0.67726636  0.24687836  0.83242560     0.40100
H1052       H  0.71411972  0.22830335  0.84624499     0.35000
C1053       C  0.93835394  0.45738317  0.59406808    -0.26800
C1054       C  0.90663823  0.46397909  0.61007792    -0.14800
C1055       C  0.87122674  0.47637091  0.60070229     0.35800
C1056       C  0.87038358  0.48420900  0.57601081    -0.26200
C1057       C  0.90308525  0.47858939  0.56029040    -0.15500
C1058       C  0.93699726  0.46454953  0.56957217     0.36900
N1059       N  0.97192319  0.46004422  0.55408601    -0.89700
H1060       H  0.96523616  0.44719267  0.60073966     0.18000
H1061       H  0.84551095  0.49673212  0.56911219     0.18000
N1062       N  0.83817673  0.48362944  0.61624515    -0.88700
H1063       H  0.95088445  0.43066856  0.54251992     0.35400
H1064       H  0.99525977  0.45053019  0.56356737     0.40500
H1065       H  0.81250045  0.44906197  0.62325516     0.40100
H1066       H  0.81676079  0.49552230  0.60676559     0.35000
C1067       C  0.19835179  0.51050131  0.65365628    -0.26800
C1068       C  0.15442043  0.50539260  0.64293411    -0.14800
C1069       C  0.15225156  0.50697673  0.61806254     0.35800
C1070       C  0.19194282  0.50875474  0.60454794    -0.26200
C1071       C  0.23296137  0.50847641  0.61547559    -0.15500
C1072       C  0.23749678  0.51172173  0.64015363     0.36900
N1073       N  0.28052799  0.51334966  0.65138535    -0.89700
H1074       H  0.20071138  0.51023539  0.67272327     0.18000
H1075       H  0.18915446  0.50671417  0.58548508     0.18000
N1076       N  0.10852599  0.50323472  0.60657314    -0.88700
H1077       H  0.27768098  0.51464466  0.66972648     0.35400
H1078       H  0.31236179  0.54649532  0.64640284     0.40500
H1079       H  0.07845079  0.46753040  0.60956971     0.40100
H1080       H  0.11386382  0.50662190  0.58830676     0.35000
loop_ 
_geom_bond_atom_site_label_1 
_geom_bond_atom_site_label_2 
_geom_bond_distance 
_geom_bond_site_symmetry_2 
_ccdc_geom_bond_type 
O1           Mg3   2.093       .  S
O1           Mg9   2.137       .  S
O1           C36   1.233       .  S
C2           O15   1.240       .  S
C2           O39   1.278       .  A
C2           H41   1.081       .  S
Mg3          O32   2.136       .  S
Mg3          O47   2.298       .  S
Mg3          O43   2.166       .  S
Mg3          O14   2.292       .  S
O4          Mg46   2.201       .  S
O4          Mg29   2.242       .  S
O4           C25   1.269       .  A
O5           C36   1.264       .  A
O5          Mg29   2.281   1_655  S
C6            O8   1.286       .  A
C6           O20   1.280       .  A
C6         C1054   1.513       .  S
O7           C35   1.272       .  A
O7           Mg9   2.296       .  S
O8          Mg40   2.356       .  S
Mg9          O15   2.118       .  S
Mg9          O23   2.258       .  S
Mg9          O11   2.331       .  S
C10          O48   1.273       .  A
C10          O16   1.265       .  A
C10        C1068   1.482       .  S
O11          C18   1.280       .  A
H12          C25   1.081       .  S
C13          O28   1.277       .  A
C13          H38   1.081       .  S
C13          O27   1.268       .  A
O14          C37   1.272       .  A
O15         Mg29   2.128   1_655  S
O16         Mg46   2.273       .  S
C17          O30   1.265       .  A
C17          O22   1.255       .  A
C17        C1026   1.484       .  S
C18          O45   1.263   1_655  A
C18         C998   1.478       .  S
Mg19         O26   2.139   1_455  S
Mg19         O20   2.322   1_455  S
Mg19         O21   2.364       .  S
Mg19         O48   2.309       .  S
Mg19         O27   2.212   1_455  S
O21          C25   1.280       .  A
O22         Mg29   2.230       .  S
O23          C42   1.273       .  A
O24          C44   1.294       .  A
O24         Mg40   2.441       .  S
O26         Mg40   2.162       .  S
O26          C37   1.239       .  S
O27         Mg46   2.247   1_655  S
O28         Mg40   2.345       .  S
Mg29         O45   2.207       .  S
O30         Mg46   2.330       .  S
H31          C36   1.081       .  S
O32         Mg40   2.161       .  S
O32          C35   1.239       .  S
H33          C35   1.081       .  S
H34          C37   1.081       .  S
O39         Mg46   2.339   1_655  S
C42          O47   1.273       .  A
C42        C1043   1.470       .  S
O43          C44   1.262       .  A
C44        C1015   1.498       .  S
O49         Mg51   2.165   1_455  S
O49         Mg57   2.178       .  S
O49          C84   1.233   1_455  S
C50          O63   1.233       .  S
C50          O87   1.266   1_455  A
C50          H89   1.081       .  S
Mg51         O80   2.147       .  S
Mg51         O95   2.317   1_655  S
Mg51         O91   2.265       .  S
Mg51         O62   2.283       .  S
O52         Mg94   2.185       .  S
O52         Mg77   2.123       .  S
O52          C73   1.239       .  S
O53          C84   1.265       .  A
O53         Mg77   2.281       .  S
C54          O56   1.290       .  A
C54          O68   1.264       .  A
C54         C956   1.500       .  S
O55          C83   1.268       .  A
O55         Mg57   2.296       .  S
O56         Mg88   2.400       .  S
Mg57         O63   2.109       .  S
Mg57         O71   2.214       .  S
Mg57         O59   2.368       .  S
C58          O96   1.267       .  A
C58          O64   1.271       .  A
C58         C945   1.471       .  S
O59          C66   1.281       .  A
H60          C73   1.081       .  S
C61          O75   1.240       .  S
C61          O76   1.273       .  A
C61          H86   1.081       .  S
O62          C85   1.269       .  A
O63         Mg77   2.176   1_455  S
O64         Mg94   2.272       .  S
C65          O78   1.271       .  A
C65          O70   1.257   1_655  A
C65         C928   1.467   1_655  S
C66          O93   1.264       .  A
C66         C973   1.498       .  S
Mg67         O74   2.124       .  S
Mg67         O75   2.147       .  S
Mg67         O68   2.222       .  S
Mg67         O69   2.296       .  S
Mg67         O96   2.254       .  S
O69          C73   1.272       .  A
O70         Mg77   2.190   1_455  S
O71          C90   1.271       .  A
O72          C92   1.296       .  A
O72         Mg88   2.437       .  S
O74         Mg88   2.159       .  S
O74          C85   1.236       .  S
O75         Mg94   2.116       .  S
O76         Mg88   2.304       .  S
Mg77         O93   2.213   1_655  S
O78         Mg94   2.271       .  S
H79          C84   1.081       .  S
O80         Mg88   2.164       .  S
O80          C83   1.234   1_655  S
H81          C83   1.081       .  S
H82          C85   1.081       .  S
O87         Mg94   2.293       .  S
C90          O95   1.279       .  A
C90         C987   1.465       .  S
O91          C92   1.276       .  A
C92        C1057   1.498       .  S
O97         Mg99   2.089       .  S
O97        Mg105   2.140       .  S
O97         C132   1.232       .  S
C98         O111   1.238       .  S
C98         O135   1.275       .  A
C98         H137   1.081       .  S
Mg99        O128   2.132       .  S
Mg99        O143   2.289       .  S
Mg99        O139   2.165       .  S
Mg99        O110   2.294       .  S
O100       Mg142   2.117   1_545  S
O100       Mg125   2.153       .  S
O100        C121   1.242   1_545  S
O101        C132   1.263       .  A
O101       Mg125   2.276       .  S
C102        O104   1.286       .  A
C102        O116   1.279       .  A
C102        C872   1.503       .  S
O103        C131   1.269       .  A
O103       Mg105   2.285       .  S
O104       Mg136   2.344       .  S
Mg105       O111   2.117       .  S
Mg105       O119   2.257       .  S
Mg105       O107   2.325       .  S
C106        O144   1.272       .  A
C106        O112   1.261       .  A
C106        C917   1.478       .  S
O107        C114   1.278       .  A
H108        C121   1.081       .  S
C109        O124   1.278       .  A
C109        H134   1.081       .  S
C109        O123   1.267       .  A
O110        C133   1.274       .  A
O111       Mg125   2.133       .  S
O112       Mg142   2.266       .  S
C113        O126   1.267       .  A
C113        O118   1.254       .  A
C113        C903   1.491       .  S
C114        O141   1.265       .  A
C114        C847   1.478       .  S
Mg115       O122   2.151       .  S
Mg115       O116   2.330       .  S
Mg115       O117   2.363       .  S
Mg115       O144   2.327   1_545  S
Mg115       O123   2.199       .  S
O117        C121   1.283   1_545  A
O118       Mg125   2.222   1_565  S
O119        C138   1.274       .  A
O120        C140   1.296       .  A
O120       Mg136   2.460       .  S
O122       Mg136   2.169       .  S
O122        C133   1.241       .  S
O123       Mg142   2.270   1_545  S
O124       Mg136   2.355       .  S
Mg125       O141   2.199       .  S
O126       Mg142   2.352       .  S
H127        C132   1.081       .  S
O128       Mg136   2.141       .  S
O128        C131   1.237       .  S
H129        C131   1.081       .  S
H130        C133   1.081       .  S
O135       Mg142   2.334   1_545  S
C138        O143   1.273       .  A
C138        C861   1.470       .  S
O139        C140   1.262       .  A
C140        C886   1.506       .  S
O145       Mg147   2.156       .  S
O145       Mg153   2.169       .  S
O145        C180   1.232       .  S
C146        O159   1.233       .  S
C146        O183   1.266       .  A
C146        H185   1.081       .  S
Mg147       O176   2.138       .  S
Mg147       O191   2.327       .  S
Mg147       O187   2.257       .  S
Mg147       O158   2.287       .  S
O148       Mg190   2.169       .  S
O148       Mg173   2.141       .  S
O148        C169   1.241       .  S
O149        C180   1.264       .  A
O149       Mg173   2.276       .  S
C150        O152   1.288       .  A
C150        O164   1.267       .  A
C150        C959   1.501       .  S
O151        C179   1.267       .  A
O151       Mg153   2.287       .  S
O152       Mg184   2.388       .  S
Mg153       O159   2.115       .  S
Mg153       O167   2.226   1_545  S
Mg153       O155   2.354   1_545  S
C154        O192   1.266       .  A
C154        O160   1.271       .  A
C154        C805   1.476       .  S
O155        C162   1.280       .  A
H156        C169   1.081       .  S
C157        O171   1.241       .  S
C157        O172   1.276       .  A
C157        H182   1.081       .  S
O158        C181   1.270       .  A
O159       Mg173   2.177       .  S
O160       Mg190   2.276       .  S
C161        O174   1.271       .  A
C161        O166   1.260       .  A
C161        C830   1.472       .  S
C162        O189   1.266       .  A
C162        C970   1.491       .  S
Mg163       O170   2.121       .  S
Mg163       O171   2.133       .  S
Mg163       O164   2.245       .  S
Mg163       O165   2.317       .  S
Mg163       O192   2.252       .  S
O165        C169   1.276       .  A
O166       Mg173   2.217       .  S
O167        C186   1.273       .  A
O168        C188   1.295       .  A
O168       Mg184   2.430       .  S
O170       Mg184   2.155       .  S
O170        C181   1.238       .  S
O171       Mg190   2.130       .  S
O172       Mg184   2.317       .  S
Mg173       O189   2.226   1_545  S
O174       Mg190   2.275       .  S
H175        C180   1.081       .  S
O176       Mg184   2.145       .  S
O176        C179   1.233       .  S
H177        C179   1.081       .  S
H178        C181   1.081       .  S
O183       Mg190   2.294       .  S
C186        O191   1.281   1_565  A
C186        C819   1.484       .  S
O187        C188   1.275       .  A
C188        C875   1.493       .  S
O193       Mg195   2.096       .  S
O193       Mg201   2.136       .  S
O193        C228   1.234       .  S
C194        O207   1.240       .  S
C194        O231   1.277       .  A
C194        H233   1.081       .  S
Mg195       O224   2.141       .  S
Mg195       O239   2.311       .  S
Mg195       O235   2.157       .  S
Mg195       O206   2.293       .  S
O196       Mg238   2.182       .  S
O196       Mg221   2.237       .  S
O196        C217   1.266       .  A
O197        C228   1.265       .  A
O197       Mg221   2.276       .  S
C198        O200   1.288       .  A
C198        O212   1.278       .  A
C198        C749   1.522       .  S
O199        C227   1.272       .  A
O199       Mg201   2.299       .  S
O200       Mg232   2.389       .  S
Mg201       O207   2.102       .  S
Mg201       O215   2.259       .  S
Mg201       O203   2.338       .  S
C202        O240   1.271       .  A
C202        O208   1.270       .  A
C202        C942   1.480       .  S
O203        C210   1.281       .  A
H204        C217   1.081       .  S
C205        O219   1.240       .  S
C205        O220   1.278       .  A
C205        H230   1.081       .  S
O206        C229   1.273       .  A
O207       Mg221   2.124       .  S
O208       Mg238   2.273       .  S
C209        O222   1.270       .  A
C209        O214   1.253       .  A
C209        C774   1.490       .  S
C210        O237   1.264       .  A
C210        C791   1.479       .  S
Mg211       O218   2.144       .  S
Mg211       O219   2.154       .  S
Mg211       O212   2.320       .  S
Mg211       O213   2.348       .  S
Mg211       O240   2.276       .  S
O213        C217   1.276       .  A
O214       Mg221   2.240       .  S
O215        C234   1.273       .  A
O216        C236   1.296       .  A
O216       Mg232   2.460       .  S
O218       Mg232   2.160       .  S
O218        C229   1.240       .  S
O219       Mg238   2.183       .  S
O220       Mg232   2.340       .  S
Mg221       O237   2.201       .  S
O222       Mg238   2.364       .  S
H223        C228   1.081       .  S
O224       Mg232   2.165       .  S
O224        C227   1.239       .  S
H225        C227   1.081       .  S
H226        C229   1.081       .  S
O231       Mg238   2.332       .  S
C234        O239   1.275       .  A
C234        C914   1.473       .  S
O235        C236   1.262       .  A
C236        C763   1.494       .  S
O241       Mg243   2.103       .  S
O241       Mg249   2.142       .  S
O241        C276   1.232       .  S
C242        O255   1.239       .  S
C242        O279   1.277       .  A
C242        H281   1.081       .  S
Mg243       O272   2.147       .  S
Mg243       O287   2.319       .  S
Mg243       O283   2.163       .  S
Mg243       O254   2.294       .  S
O244       Mg286   2.102       .  S
O244       Mg269   2.139       .  S
O244        C265   1.242       .  S
O245        C276   1.263       .  A
O245       Mg269   2.275       .  S
C246        O248   1.290       .  A
C246        O260   1.282       .  A
C246        C746   1.516       .  S
O247        C275   1.270       .  A
O247       Mg249   2.295       .  S
O248       Mg280   2.378       .  S
Mg249       O255   2.121       .  S
Mg249       O263   2.256       .  S
Mg249       O251   2.336       .  S
C250        O288   1.272       .  A
C250        O256   1.262       .  A
C250        C802   1.484       .  S
O251        C258   1.279       .  A
H252        C265   1.081       .  S
C253        O268   1.276       .  A
C253        H278   1.081       .  S
C253        O267   1.266       .  A
O254        C277   1.274       .  A
O255       Mg269   2.138       .  S
O256       Mg286   2.255       .  S
C257        O270   1.270       .  A
C257        O262   1.253       .  A
C257        C735   1.497       .  S
C258        O285   1.262       .  A
C258        C704   1.480       .  S
Mg259       O266   2.150       .  S
Mg259       O260   2.339       .  S
Mg259       O261   2.360       .  S
Mg259       O288   2.330       .  S
Mg259       O267   2.220       .  S
O261        C265   1.282       .  A
O262       Mg269   2.232       .  S
O263        C282   1.273       .  A
O264        C284   1.296       .  A
O264       Mg280   2.449       .  S
O266       Mg280   2.174       .  S
O266        C277   1.241       .  S
O267       Mg286   2.279       .  S
O268       Mg280   2.346       .  S
Mg269       O285   2.179       .  S
O270       Mg286   2.387       .  S
H271        C276   1.081       .  S
O272       Mg280   2.169       .  S
O272        C275   1.236       .  S
H273        C275   1.081       .  S
H274        C277   1.081       .  S
O279       Mg286   2.338       .  S
C282        O287   1.275       .  A
C282       C1071   1.468       .  S
O283        C284   1.260       .  A
C284        C718   1.485       .  S
O289       Mg291   2.100       .  S
O289       Mg297   2.144       .  S
O289        C324   1.232       .  S
C290        O303   1.240       .  S
C290        O327   1.277       .  A
C290        H329   1.081       .  S
Mg291       O320   2.132       .  S
Mg291       O335   2.281       .  S
Mg291       O331   2.177       .  S
Mg291       O302   2.293       .  S
O292       Mg334   2.189   1_455  S
O292       Mg317   2.224   1_455  S
O292        C313   1.269   1_455  A
O293        C324   1.263       .  A
O293       Mg317   2.272   1_455  S
C294        O296   1.281       .  A
C294        O308   1.278       .  A
C294        C662   1.491       .  S
O295        C323   1.270       .  A
O295       Mg297   2.289       .  S
O296       Mg328   2.313   1_554  S
Mg297       O303   2.103       .  S
Mg297       O311   2.249       .  S
Mg297       O299   2.337       .  S
C298        O336   1.270       .  A
C298        O304   1.259   1_554  A
C298        C858   1.463       .  S
O299        C306   1.282       .  A
H300        C313   1.081       .  S
C301        O316   1.275       .  A
C301        H326   1.081   1_556  S
C301        O315   1.265       .  A
O302        C325   1.274       .  A
O303       Mg317   2.135   1_455  S
O304       Mg334   2.261       .  S
C305        O318   1.267       .  A
C305        O310   1.255       .  A
C305        C693   1.474       .  S
C306        O333   1.265       .  A
C306       C1001   1.481       .  S
Mg307       O314   2.136       .  S
Mg307       O308   2.326   1_556  S
Mg307       O309   2.365   1_455  S
Mg307       O336   2.302   1_456  S
Mg307       O315   2.214       .  S
O309        C313   1.280       .  A
O310       Mg317   2.245       .  S
O311        C330   1.273       .  A
O312        C332   1.288       .  A
O312       Mg328   2.404       .  S
O314       Mg328   2.162       .  S
O314        C325   1.241       .  S
O315       Mg334   2.255   1_455  S
O316       Mg328   2.348       .  S
Mg317       O333   2.193   1_655  S
O318       Mg334   2.332       .  S
H319        C324   1.081       .  S
O320       Mg328   2.140       .  S
O320        C323   1.237       .  S
H321        C323   1.081       .  S
H322        C325   1.081       .  S
O327       Mg334   2.331   1_455  S
C330        O335   1.271       .  A
C330        C651   1.458       .  S
O331        C332   1.263       .  A
C332        C679   1.494       .  S
O337       Mg339   2.163       .  S
O337       Mg345   2.175       .  S
O337        C372   1.235       .  S
C338        O351   1.233       .  S
C338        O375   1.267       .  A
C338        H377   1.081       .  S
Mg339       O368   2.147       .  S
Mg339       O383   2.332       .  S
Mg339       O379   2.259       .  S
Mg339       O350   2.281       .  S
O340       Mg382   2.183       .  S
O340       Mg365   2.132       .  S
O340        C361   1.240       .  S
O341        C372   1.268       .  A
O341       Mg365   2.287       .  S
C342        O344   1.288       .  A
C342        O356   1.264       .  A
C342        C760   1.500       .  S
O343        C371   1.265       .  A
O343       Mg345   2.286       .  S
O344       Mg376   2.389       .  S
Mg345       O351   2.112       .  S
Mg345       O359   2.223   1_455  S
Mg345       O347   2.345   1_455  S
C346        O384   1.266       .  A
C346        O352   1.271       .  A
C346        C816   1.467       .  S
O347        C354   1.279       .  A
H348        C361   1.081       .  S
C349        O363   1.239       .  S
C349        O364   1.271       .  A
C349        H374   1.081       .  S
O350        C373   1.269       .  A
O351       Mg365   2.172       .  S
O352       Mg382   2.275       .  S
C353        O366   1.269       .  A
C353        O358   1.258       .  A
C353        C931   1.471       .  S
C354        O381   1.264   1_655  A
C354        C777   1.490       .  S
Mg355       O362   2.115       .  S
Mg355       O363   2.142       .  S
Mg355       O356   2.212       .  S
Mg355       O357   2.299       .  S
Mg355       O384   2.255       .  S
O357        C361   1.273       .  A
O358       Mg365   2.201       .  S
O359        C378   1.273       .  A
O360        C380   1.291       .  A
O360       Mg376   2.395       .  S
O362       Mg376   2.163       .  S
O362        C373   1.237       .  S
O363       Mg382   2.096       .  S
O364       Mg376   2.293       .  S
Mg365       O381   2.220       .  S
O366       Mg382   2.258       .  S
H367        C372   1.081       .  S
O368       Mg376   2.156       .  S
O368        C371   1.231       .  S
H369        C371   1.081       .  S
H370        C373   1.081       .  S
O375       Mg382   2.299       .  S
C378        O383   1.281   1_655  A
C378        C634   1.475       .  S
O379        C380   1.277       .  A
C380        C665   1.486       .  S
O385       Mg387   2.086       .  S
O385       Mg393   2.135       .  S
O385        C420   1.233       .  S
C386        O399   1.238       .  S
C386        O423   1.276   1_565  A
C386        H425   1.081       .  S
Mg387       O416   2.137       .  S
Mg387       O431   2.306       .  S
Mg387       O427   2.148       .  S
Mg387       O398   2.287       .  S
O388       Mg430   2.117       .  S
O388       Mg413   2.150       .  S
O388        C409   1.241       .  S
O389        C420   1.263       .  A
O389       Mg413   2.276   1_565  S
C390        O392   1.287       .  A
C390        O404   1.277       .  A
C390        C620   1.521       .  S
O391        C419   1.270       .  A
O391       Mg393   2.289       .  S
O392       Mg424   2.376       .  S
Mg393       O399   2.121       .  S
Mg393       O407   2.267       .  S
Mg393       O395   2.334       .  S
C394        O432   1.268       .  A
C394        O400   1.262       .  A
C394       C1040   1.470       .  S
O395        C402   1.280       .  A
H396        C409   1.081       .  S
C397        O412   1.275       .  A
C397        H422   1.081       .  S
C397        O411   1.266       .  A
O398        C421   1.273       .  A
O399       Mg413   2.135   1_565  S
O400       Mg430   2.272       .  S
C401        O414   1.266       .  A
C401        O406   1.255       .  A
C401        C690   1.485       .  S
C402        O429   1.265   1_565  A
C402        C844   1.480   1_565  S
Mg403       O410   2.127   1_545  S
Mg403       O404   2.298   1_545  S
Mg403       O405   2.357       .  S
Mg403       O432   2.294       .  S
Mg403       O411   2.206   1_545  S
O405        C409   1.281       .  A
O406       Mg413   2.227       .  S
O407        C426   1.275       .  A
O408        C428   1.294       .  A
O408       Mg424   2.437       .  S
O410       Mg424   2.177       .  S
O410        C421   1.241       .  S
O411       Mg430   2.255   1_565  S
O412       Mg424   2.342       .  S
Mg413       O429   2.195       .  S
O414       Mg430   2.330       .  S
H415        C420   1.081       .  S
O416       Mg424   2.160       .  S
O416        C419   1.237       .  S
H417        C419   1.081       .  S
H418        C421   1.081       .  S
O423       Mg430   2.335       .  S
C426        O431   1.275       .  A
C426        C606   1.472       .  S
O427        C428   1.262       .  A
C428        C676   1.496       .  S
O433       Mg435   2.075       .  S
O433       Mg441   2.135       .  S
O433        C468   1.232       .  S
C434        O447   1.238   1_545  S
C434        O471   1.275       .  A
C434        H473   1.081   1_545  S
Mg435       O464   2.138       .  S
Mg435       O479   2.262       .  S
Mg435       O475   2.131       .  S
Mg435       O446   2.280       .  S
O436       Mg478   2.101       .  S
O436       Mg461   2.155       .  S
O436        C457   1.240       .  S
O437        C468   1.263   1_545  A
O437       Mg461   2.274       .  S
C438        O440   1.288       .  A
C438        O452   1.278       .  A
C438        C623   1.521       .  S
O439        C467   1.272       .  A
O439       Mg441   2.288       .  S
O440       Mg472   2.373       .  S
Mg441       O447   2.117       .  S
Mg441       O455   2.267       .  S
Mg441       O443   2.327       .  S
C442        O480   1.268       .  A
C442        O448   1.263       .  A
C442        C592   1.470       .  S
O443        C450   1.279   1_565  A
H444        C457   1.081       .  S
C445        O459   1.240   1_565  S
C445        O460   1.280       .  A
C445        H470   1.081       .  S
O446        C469   1.271       .  A
O447       Mg461   2.122   1_565  S
O448       Mg478   2.266       .  S
C449        O462   1.271       .  A
C449        O454   1.256       .  A
C449        C732   1.498       .  S
C450        O477   1.264       .  A
C450        C833   1.476       .  S
Mg451       O458   2.134   1_545  S
Mg451       O459   2.144       .  S
Mg451       O452   2.315   1_545  S
Mg451       O453   2.358       .  S
Mg451       O480   2.290       .  S
O453        C457   1.280       .  A
O454       Mg461   2.237       .  S
O455        C474   1.274       .  A
O456        C476   1.298       .  A
O456       Mg472   2.486       .  S
O458       Mg472   2.167       .  S
O458        C469   1.239       .  S
O459       Mg478   2.217       .  S
O460       Mg472   2.352       .  S
Mg461       O477   2.203       .  S
O462       Mg478   2.379       .  S
H463        C468   1.081       .  S
O464       Mg472   2.142       .  S
O464        C467   1.240       .  S
H465        C467   1.081       .  S
H466        C469   1.081       .  S
O471       Mg478   2.334       .  S
C474        O479   1.269       .  A
C474        C984   1.468       .  S
O475        C476   1.258       .  A
C476        C721   1.504       .  S
O481       Mg483   2.097       .  S
O481       Mg489   2.141       .  S
O481        C516   1.233       .  S
C482        O495   1.240       .  S
C482        O519   1.277       .  A
C482        H521   1.081       .  S
Mg483       O512   2.134       .  S
Mg483       O527   2.300       .  S
Mg483       O523   2.167       .  S
Mg483       O494   2.297       .  S
O484       Mg526   2.188       .  S
O484       Mg509   2.223       .  S
O484        C505   1.268       .  A
O485        C516   1.263       .  A
O485       Mg509   2.271       .  S
C486        O488   1.286       .  A
C486        O500   1.277       .  A
C486        C578   1.513       .  S
O487        C515   1.271       .  A
O487       Mg489   2.291       .  S
O488       Mg520   2.361   1_556  S
Mg489       O495   2.107       .  S
Mg489       O503   2.247       .  S
Mg489       O491   2.344       .  S
C490        O528   1.271       .  A
C490        O496   1.262   1_556  A
C490        C609   1.472       .  S
O491        C498   1.282       .  A
H492        C505   1.081       .  S
C493        O508   1.277       .  A
C493        H518   1.081       .  S
C493        O507   1.267   1_556  A
O494        C517   1.274       .  A
O495       Mg509   2.131       .  S
O496       Mg526   2.267       .  S
C497        O510   1.269       .  A
C497        O502   1.255       .  A
C497        C900   1.483       .  S
C498        O525   1.264       .  A
C498        C788   1.481       .  S
Mg499       O506   2.150       .  S
Mg499       O500   2.306   1_554  S
Mg499       O501   2.360       .  S
Mg499       O528   2.309   1_554  S
Mg499       O507   2.222       .  S
O501        C505   1.279       .  A
O502       Mg509   2.244       .  S
O503        C522   1.273       .  A
O504        C524   1.296       .  A
O504       Mg520   2.459       .  S
O506       Mg520   2.180       .  S
O506        C517   1.241       .  S
O507       Mg526   2.274       .  S
O508       Mg520   2.353   1_556  S
Mg509       O525   2.186       .  S
O510       Mg526   2.353       .  S
H511        C516   1.081       .  S
O512       Mg520   2.151       .  S
O512        C515   1.238       .  S
H513        C515   1.081       .  S
H514        C517   1.081       .  S
O519       Mg526   2.331       .  S
C522        O527   1.274       .  A
C522        C637   1.465       .  S
O523        C524   1.262       .  A
C524        C889   1.505       .  S
O529       Mg531   2.096       .  S
O529       Mg537   2.132       .  S
O529        C564   1.234       .  S
C530        O543   1.239       .  S
C530        O567   1.276       .  A
C530        H569   1.081       .  S
Mg531       O560   2.141       .  S
Mg531       O575   2.294       .  S
Mg531       O571   2.162       .  S
Mg531       O542   2.286       .  S
O532       Mg574   2.108       .  S
O532       Mg557   2.142       .  S
O532        C553   1.241       .  S
O533        C564   1.266       .  A
O533       Mg557   2.288       .  S
C534        O536   1.286       .  A
C534        O548   1.278       .  A
C534        C581   1.519       .  S
O535        C563   1.273       .  A
O535       Mg537   2.299       .  S
O536       Mg568   2.365       .  S
Mg537       O543   2.112       .  S
Mg537       O551   2.250       .  S
Mg537       O539   2.342       .  S
C538        O576   1.269       .  A
C538        O544   1.263       .  A
C538        C648   1.469       .  S
O539        C546   1.279       .  A
H540        C553   1.081       .  S
C541        O556   1.276       .  A
C541        H566   1.081       .  S
C541        O555   1.266       .  A
O542        C565   1.271       .  A
O543       Mg557   2.115       .  S
O544       Mg574   2.263       .  S
C545        O558   1.268       .  A
C545        O550   1.254       .  A
C545       C1029   1.484       .  S
C546        O573   1.263       .  A
C546        C707   1.478       .  S
Mg547       O554   2.119       .  S
Mg547       O548   2.302       .  S
Mg547       O549   2.353       .  S
Mg547       O576   2.290       .  S
Mg547       O555   2.208       .  S
O549        C553   1.281       .  A
O550       Mg557   2.236       .  S
O551        C570   1.272       .  A
O552        C572   1.293       .  A
O552       Mg568   2.432       .  S
O554       Mg568   2.165       .  S
O554        C565   1.239       .  S
O555       Mg574   2.258       .  S
O556       Mg568   2.342       .  S
Mg557       O573   2.205       .  S
O558       Mg574   2.341       .  S
H559        C564   1.081       .  S
O560       Mg568   2.164       .  S
O560        C563   1.240       .  S
H561        C563   1.081       .  S
H562        C565   1.081       .  S
O567       Mg574   2.333       .  S
C570        O575   1.272       .  A
C570        C595   1.465       .  S
O571        C572   1.260       .  A
C572       C1012   1.491       .  S
C577        H584   1.083       .  S
C577        C578   1.412       .  A
C577        C582   1.420       .  A
C578        C579   1.416       .  A
C579        C580   1.405       .  A
C579        N586   1.434       .  S
C580        H585   1.083       .  S
C580        C581   1.411       .  A
C581        C582   1.424       .  A
C582        N583   1.431       .  S
N583        H587   1.045       .  S
N583        H588   1.045       .  S
N586        H589   1.046       .  S
N586        H590   1.045       .  S
C591        H598   1.084       .  S
C591        C592   1.404       .  A
C591        C596   1.403       .  A
C592        C593   1.417       .  A
C593        C594   1.400       .  A
C593        N600   1.439       .  S
C594        H599   1.084       .  S
C594        C595   1.400       .  A
C595        C596   1.408       .  A
C596        N597   1.438       .  S
N597        H601   1.046       .  S
N597        H602   1.045       .  S
N600        H603   1.044       .  S
N600        H604   1.046       .  S
C605        H612   1.084       .  S
C605        C606   1.401       .  A
C605        C610   1.405       .  A
C606        C607   1.409       .  A
C607        C608   1.405       .  A
C607        N614   1.438       .  S
C608        H613   1.084       .  S
C608        C609   1.404       .  A
C609        C610   1.410       .  A
C610        N611   1.438       .  S
N611        H615   1.046       .  S
N611        H616   1.045       .  S
N614        H617   1.046       .  S
N614        H618   1.046       .  S
C619        H626   1.083       .  S
C619        C620   1.410       .  A
C619        C624   1.405       .  A
C620        C621   1.421       .  A
C621        C622   1.430       .  A
C621        N628   1.436       .  S
C622        H627   1.083       .  S
C622        C623   1.415       .  A
C623        C624   1.419       .  A
C624        N625   1.434   1_565  S
N625        H629   1.046       .  S
N625        H630   1.046       .  S
N628        H631   1.046       .  S
N628        H632   1.045       .  S
C633        H640   1.084       .  S
C633        C634   1.406       .  A
C633        C638   1.405       .  A
C634        C635   1.410       .  A
C635        C636   1.400       .  A
C635        N642   1.433       .  S
C636        H641   1.084       .  S
C636        C637   1.400       .  A
C637        C638   1.407       .  A
C638        N639   1.437       .  S
N639        H643   1.046       .  S
N639        H644   1.045       .  S
N642        H645   1.046       .  S
N642        H646   1.046       .  S
C647        H654   1.084       .  S
C647        C648   1.405       .  A
C647        C652   1.394       .  A
C648        C649   1.411       .  A
C649        C650   1.404       .  A
C649        N656   1.438       .  S
C650        H655   1.084       .  S
C650        C651   1.401       .  A
C651        C652   1.410       .  A
C652        N653   1.439       .  S
N653        H657   1.046       .  S
N653        H658   1.043       .  S
N656        H659   1.046       .  S
N656        H660   1.046       .  S
C661        H668   1.084       .  S
C661        C662   1.401       .  A
C661        C666   1.408       .  A
C662        C663   1.420       .  A
C663        C664   1.406       .  A
C663        N670   1.433       .  S
C664        H669   1.084       .  S
C664        C665   1.403       .  A
C665        C666   1.421       .  A
C666        N667   1.439       .  S
N667        H671   1.046       .  S
N667        H672   1.044       .  S
N670        H673   1.046       .  S
N670        H674   1.044       .  S
C675        H682   1.084       .  S
C675        C676   1.420       .  A
C675        C680   1.399       .  A
C676        C677   1.402       .  A
C677        C678   1.411       .  A
C677        N684   1.436       .  S
C678        H683   1.083       .  S
C678        C679   1.420       .  A
C679        C680   1.406       .  A
C680        N681   1.432       .  S
N681        H685   1.045       .  S
N681        H686   1.045       .  S
N684        H687   1.046       .  S
N684        H688   1.046       .  S
C689        H696   1.084       .  S
C689        C690   1.406       .  A
C689        C694   1.401       .  A
C690        C691   1.415       .  A
C691        C692   1.412       .  A
C691        N698   1.437       .  S
C692        H697   1.084       .  S
C692        C693   1.403       .  A
C693        C694   1.408       .  A
C694        N695   1.438       .  S
N695        H699   1.046       .  S
N695        H700   1.045       .  S
N698        H701   1.045       .  S
N698        H702   1.046       .  S
C703        H710   1.084       .  S
C703        C704   1.412       .  A
C703        C708   1.401       .  A
C704        C705   1.406       .  A
C705        C706   1.398       .  A
C705        N712   1.433       .  S
C706        H711   1.084       .  S
C706        C707   1.411       .  A
C707        C708   1.407       .  A
C708        N709   1.438       .  S
N709        H713   1.046       .  S
N709        H714   1.045       .  S
N712        H715   1.046       .  S
N712        H716   1.046       .  S
C717        H724   1.084       .  S
C717        C718   1.415       .  A
C717        C722   1.419       .  A
C718        C719   1.412       .  A
C719        C720   1.402       .  A
C719        N726   1.440       .  S
C720        H725   1.085       .  S
C720        C721   1.416       .  A
C721        C722   1.418       .  A
C722        N723   1.436       .  S
N723        H727   1.046       .  S
N723        H728   1.042       .  S
N726        H729   1.044       .  S
N726        H730   1.046       .  S
C731        H738   1.084       .  S
C731        C732   1.405       .  A
C731        C736   1.406       .  A
C732        C733   1.417       .  A
C733        C734   1.421       .  A
C733        N740   1.436       .  S
C734        H739   1.083       .  S
C734        C735   1.408       .  A
C735        C736   1.416       .  A
C736        N737   1.439       .  S
N737        H741   1.046       .  S
N737        H742   1.045       .  S
N740        H743   1.045       .  S
N740        H744   1.046       .  S
C745        H752   1.084       .  S
C745        C746   1.405       .  A
C745        C750   1.413       .  A
C746        C747   1.429       .  A
C747        C748   1.425       .  A
C747        N754   1.438       .  S
C748        H753   1.083       .  S
C748        C749   1.411       .  A
C749        C750   1.422       .  A
C750        N751   1.439       .  S
N751        H755   1.046       .  S
N751        H756   1.046       .  S
N754        H757   1.041       .  S
N754        H758   1.046       .  S
C759        H766   1.084       .  S
C759        C760   1.419       .  A
C759        C764   1.406       .  A
C760        C761   1.407       .  A
C761        C762   1.409       .  A
C761        N768   1.431       .  S
C762        H767   1.084       .  S
C762        C763   1.420       .  A
C763        C764   1.406       .  A
C764        N765   1.432       .  S
N765        H769   1.045       .  S
N765        H770   1.045       .  S
N768        H771   1.046       .  S
N768        H772   1.045       .  S
C773        H780   1.084       .  S
C773        C774   1.406       .  A
C773        C778   1.406       .  A
C774        C775   1.413       .  A
C775        C776   1.414       .  A
C775        N782   1.437       .  S
C776        H781   1.083       .  S
C776        C777   1.408       .  A
C777        C778   1.411       .  A
C778        N779   1.432       .  S
N779        H783   1.046       .  S
N779        H784   1.046       .  S
N782        H785   1.045       .  S
N782        H786   1.046       .  S
C787        H794   1.084       .  S
C787        C788   1.401       .  A
C787        C792   1.400       .  A
C788        C789   1.418       .  A
C789        C790   1.397       .  A
C789        N796   1.434       .  S
C790        H795   1.084       .  S
C790        C791   1.399       .  A
C791        C792   1.418       .  A
C792        N793   1.434       .  S
N793        H797   1.046       .  S
N793        H798   1.046       .  S
N796        H799   1.046       .  S
N796        H800   1.046       .  S
C801        H808   1.081       .  S
C801        C802   1.406       .  A
C801        C806   1.395       .  A
C802        C803   1.410       .  A
C803        C804   1.408       .  A
C803        N810   1.432       .  S
C804        H809   1.084       .  S
C804        C805   1.407       .  A
C805        C806   1.410       .  A
C806        N807   1.440       .  S
N807        H811   1.046       .  S
N807        H812   1.046       .  S
N810        H813   1.046       .  S
N810        H814   1.046       .  S
C815        H822   1.084       .  S
C815        C816   1.398       .  A
C815        C820   1.399       .  A
C816        C817   1.407       .  A
C817        C818   1.407       .  A
C817        N824   1.437       .  S
C818        H823   1.083       .  S
C818        C819   1.409       .  A
C819        C820   1.416       .  A
C820        N821   1.438       .  S
N821        H825   1.045       .  S
N821        H826   1.046       .  S
N824        H827   1.045       .  S
N824        H828   1.046       .  S
C829        H836   1.084       .  S
C829        C830   1.397       .  A
C829        C834   1.397       .  A
C830        C831   1.419       .  A
C831        C832   1.401       .  A
C831        N838   1.439   1_545  S
C832        H837   1.084   1_545  S
C832        C833   1.401       .  A
C833        C834   1.414       .  A
C834        N835   1.432       .  S
N835        H839   1.045       .  S
N835        H840   1.046       .  S
N838        H841   1.045       .  S
N838        H842   1.046       .  S
C843        H850   1.084       .  S
C843        C844   1.411       .  A
C843        C848   1.400       .  A
C844        C845   1.406   1_545  A
C845        C846   1.397   1_556  A
C845        N852   1.433       .  S
C846        H851   1.084       .  S
C846        C847   1.410   1_565  A
C847        C848   1.408   1_554  A
C848        N849   1.438   1_556  S
N849        H853   1.046   1_554  S
N849        H854   1.045       .  S
N852        H855   1.046       .  S
N852        H856   1.045       .  S
C857        H864   1.084   1_554  S
C857        C858   1.403       .  A
C857        C862   1.403       .  A
C858        C859   1.408       .  A
C859        C860   1.402       .  A
C859        N866   1.439       .  S
C860        H865   1.084       .  S
C860        C861   1.402       .  A
C861        C862   1.411       .  A
C862        N863   1.438       .  S
N863        H867   1.046       .  S
N863        H868   1.045       .  S
N866        H869   1.046       .  S
N866        H870   1.046       .  S
C871        H878   1.083       .  S
C871        C872   1.405       .  A
C871        C876   1.418       .  A
C872        C873   1.424       .  A
C873        C874   1.408       .  A
C873        N880   1.433       .  S
C874        H879   1.084       .  S
C874        C875   1.402       .  A
C875        C876   1.416       .  A
C876        N877   1.437       .  S
N877        H881   1.046       .  S
N877        H882   1.045       .  S
N880        H883   1.045       .  S
N880        H884   1.044       .  S
C885        H892   1.083       .  S
C885        C886   1.423       .  A
C885        C890   1.413       .  A
C886        C887   1.404       .  A
C887        C888   1.413       .  A
C887        N894   1.437       .  S
C888        H893   1.083       .  S
C888        C889   1.423       .  A
C889        C890   1.404       .  A
C890        N891   1.437       .  S
N891        H895   1.046       .  S
N891        H896   1.046       .  S
N894        H897   1.045       .  S
N894        H898   1.046       .  S
C899        H906   1.083       .  S
C899        C900   1.406       .  A
C899        C904   1.415       .  A
C900        C901   1.410       .  A
C901        C902   1.403       .  A
C901        N908   1.439       .  S
C902        H907   1.084       .  S
C902        C903   1.407       .  A
C903        C904   1.415       .  A
C904        N905   1.437       .  S
N905        H909   1.046       .  S
N905        H910   1.046       .  S
N908        H911   1.046       .  S
N908        H912   1.045       .  S
C913        H920   1.084       .  S
C913        C914   1.403       .  A
C913        C918   1.406       .  A
C914        C915   1.415       .  A
C915        C916   1.402       .  A
C915        N922   1.439       .  S
C916        H921   1.084       .  S
C916        C917   1.406       .  A
C917        C918   1.410       .  A
C918        N919   1.437       .  S
N919        H923   1.046       .  S
N919        H924   1.045       .  S
N922        H925   1.042       .  S
N922        H926   1.046       .  S
C927        H934   1.084       .  S
C927        C928   1.395   1_655  A
C927        C932   1.395   1_655  A
C928        C929   1.418       .  A
C929        C930   1.394       .  A
C929        N936   1.434       .  S
C930        H935   1.084       .  S
C930        C931   1.397       .  A
C931        C932   1.421       .  A
C932        N933   1.434   1_455  S
N933        H937   1.046       .  S
N933        H938   1.046       .  S
N936        H939   1.046       .  S
N936        H940   1.046       .  S
C941        H948   1.084       .  S
C941        C942   1.407       .  A
C941        C946   1.399       .  A
C942        C943   1.417       .  A
C943        C944   1.400       .  A
C943        N950   1.432       .  S
C944        H949   1.084       .  S
C944        C945   1.402       .  A
C945        C946   1.408       .  A
C946        N947   1.439       .  S
N947        H951   1.046       .  S
N947        H952   1.046       .  S
N950        H953   1.045       .  S
N950        H954   1.045       .  S
C955        H962   1.084       .  S
C955        C956   1.419       .  A
C955        C960   1.417       .  A
C956        C957   1.412       .  A
C957        C958   1.411       .  A
C957        N964   1.437       .  S
C958        H963   1.084       .  S
C958        C959   1.415       .  A
C959        C960   1.405       .  A
C960        N961   1.437       .  S
N961        H965   1.046       .  S
N961        H966   1.046       .  S
N964        H967   1.043       .  S
N964        H968   1.046       .  S
C969        H976   1.084       .  S
C969        C970   1.407       .  A
C969        C974   1.415       .  A
C970        C971   1.411       .  A
C971        C972   1.409       .  A
C971        N978   1.438       .  S
C972        H977   1.084       .  S
C972        C973   1.409       .  A
C973        C974   1.417       .  A
C974        N975   1.438       .  S
N975        H979   1.046       .  S
N975        H980   1.046       .  S
N978        H981   1.046       .  S
N978        H982   1.046       .  S
C983        H990   1.084       .  S
C983        C984   1.403       .  A
C983        C988   1.399       .  A
C984        C985   1.407       .  A
C985        C986   1.401       .  A
C985        N992   1.438       .  S
C986        H991   1.084       .  S
C986        C987   1.404       .  A
C987        C988   1.413       .  A
C988        N989   1.437       .  S
N989        H993   1.046       .  S
N989        H994   1.045       .  S
N992        H995   1.046       .  S
N992        H996   1.046       .  S
C997       H1004   1.084       .  S
C997        C998   1.399       .  A
C997       C1002   1.397       .  A
C998        C999   1.419   1_655  A
C999       C1000   1.401       .  A
C999       N1006   1.438       .  S
C1000      H1005   1.083       .  S
C1000      C1001   1.401       .  A
C1001      C1002   1.417   1_455  A
C1002      N1003   1.434       .  S
N1003      H1007   1.046       .  S
N1003      H1008   1.046       .  S
N1006      H1009   1.045       .  S
N1006      H1010   1.046       .  S
C1011      H1018   1.084       .  S
C1011      C1012   1.394       .  A
C1011      C1016   1.408       .  A
C1012      C1013   1.431       .  A
C1013      C1014   1.404       .  A
C1013      N1020   1.435       .  S
C1014      H1019   1.084       .  S
C1014      C1015   1.396       .  A
C1015      C1016   1.430       .  A
C1016      N1017   1.439       .  S
N1017      H1021   1.046       .  S
N1017      H1022   1.046       .  S
N1020      H1023   1.046       .  S
N1020      H1024   1.043       .  S
C1025      H1032   1.084       .  S
C1025      C1026   1.403       .  A
C1025      C1030   1.406       .  A
C1026      C1027   1.417       .  A
C1027      C1028   1.405       .  A
C1027      N1034   1.432       .  S
C1028      H1033   1.084       .  S
C1028      C1029   1.404       .  A
C1029      C1030   1.414       .  A
C1030      N1031   1.438       .  S
N1031      H1035   1.046       .  S
N1031      H1036   1.045       .  S
N1034      H1037   1.045       .  S
N1034      H1038   1.045       .  S
C1039      H1046   1.084       .  S
C1039      C1040   1.402       .  A
C1039      C1044   1.405       .  A
C1040      C1041   1.408       .  A
C1041      C1042   1.401       .  A
C1041      N1048   1.433       .  S
C1042      H1047   1.084       .  S
C1042      C1043   1.402       .  A
C1043      C1044   1.410       .  A
C1044      N1045   1.438       .  S
N1045      H1049   1.046       .  S
N1045      H1050   1.045       .  S
N1048      H1051   1.046       .  S
N1048      H1052   1.045       .  S
C1053      H1060   1.084       .  S
C1053      C1054   1.412       .  A
C1053      C1058   1.411       .  A
C1054      C1055   1.418       .  A
C1055      C1056   1.424       .  A
C1055      N1062   1.436       .  S
C1056      H1061   1.083       .  S
C1056      C1057   1.410       .  A
C1057      C1058   1.409       .  A
C1058      N1059   1.438       .  S
N1059      H1063   1.046       .  S
N1059      H1064   1.046       .  S
N1062      H1065   1.045       .  S
N1062      H1066   1.046       .  S
C1067      H1074   1.084       .  S
C1067      C1068   1.408       .  A
C1067      C1072   1.402       .  A
C1068      C1069   1.414       .  A
C1069      C1070   1.409       .  A
C1069      N1076   1.438       .  S
C1070      H1075   1.084       .  S
C1070      C1071   1.401       .  A
C1071      C1072   1.405       .  A
C1072      N1073   1.438       .  S
N1073      H1077   1.046       .  S
N1073      H1078   1.046       .  S
N1076      H1079   1.046       .  S
N1076      H1080   1.046       .  S
