geometry optimzed in LAMMPS
_audit_creation_date              2020-12-01 
_audit_creation_method            'lammps2cif' 
_symmetry_space_group_name_H-M    'P1' 
_symmetry_Int_Tables_number       1 
_symmetry_cell_setting            triclinic 
loop_ 
_symmetry_equiv_pos_as_xyz 
  x,y,z 
_cell_length_a                    35.47231068 
_cell_length_b                    35.25020255587382 
_cell_length_c                    48.44346330794468 
_cell_angle_alpha                 90.16031129354168 
_cell_angle_beta                  89.78127009969923 
_cell_angle_gamma                 120.49118843460982 
loop_ 
_atom_site_label 
_atom_site_type_symbol 
_atom_site_fract_x 
_atom_site_fract_y 
_atom_site_fract_z 
_atom_site_charge 
O1          O  0.68721093  0.50637223  0.60737226    -0.81500
C2          C  0.72678137  0.67890402  0.58489081     0.97800
O3          O  0.69584642  0.65271908  0.60061093    -0.70600
O4          O  0.64858462  0.57777353  0.57566096    -0.74200
Al5        Al  0.67599014  0.59227867  0.61019649     1.49000
C6          C  0.64502616  0.54971038  0.55823858     0.93100
O7          O  0.75451178  0.58319488  0.54889427    -0.80500
O8          O  0.79661734  0.60815991  0.62581072    -0.74000
Al9        Al  0.72114622  0.54817432  0.57970847     1.90100
O10         O  0.80586627  0.63708504  0.57256992    -0.73100
O11         O  0.76201134  0.65884379  0.63888396    -0.72900
O12         O  0.76141777  0.67697281  0.58305893    -0.78600
O13         O  0.69551974  0.60598324  0.64701208    -0.76800
O14         O  0.72441614  0.59351880  0.59828150    -1.12900
O15         O  0.64574725  0.53176728  0.62116238    -0.72100
C16         C  0.65369008  0.50072706  0.62014567     0.98600
C17         C  0.79261424  0.61619616  0.55022728     0.95000
Al18       Al  0.77680667  0.64123482  0.60466525     1.55600
O19         O  0.67040932  0.53462708  0.55913302    -0.76800
C20         C  0.72996698  0.63937560  0.65517932     0.99200
C21         C  0.79529618  0.57358791  0.61678906     0.94000
O22         O  0.77103748  0.55208036  0.59678608    -0.82100
O23         O  0.52357314  0.67375435  0.88897465    -0.81500
C24         C  0.69454214  0.70939970  0.90721048     0.97800
O25         O  0.66856553  0.68069959  0.89014489    -0.70600
O26         O  0.59590866  0.63239854  0.91679648    -0.74200
Al27       Al  0.60777250  0.66102858  0.88267418     1.49000
C28         C  0.56639123  0.62580191  0.93377110     0.93100
O29         O  0.60177601  0.73607863  0.94749753    -0.80500
O30         O  0.62346505  0.78087186  0.87009834    -0.74000
Al31       Al  0.56578882  0.70509269  0.91649372     1.90100
O32         O  0.65363041  0.78994834  0.92374276    -0.73100
O33         O  0.67489786  0.74724430  0.85596254    -0.72900
O34         O  0.69261163  0.74405388  0.91128613    -0.78600
O35         O  0.61906212  0.68295167  0.84592349    -0.76800
O36         O  0.60989143  0.70881780  0.89662179    -1.12900
O37         O  0.54668558  0.63058783  0.87378452    -0.72100
C38         C  0.51642690  0.63917459  0.87672640     0.98600
C39         C  0.63361209  0.77497047  0.94627418     0.95000
Al40       Al  0.65733028  0.76131460  0.89067076     1.55600
O41         O  0.55119372  0.65128244  0.93496582    -0.76800
C42         C  0.65453623  0.71634688  0.83885839     0.99200
C43         C  0.58882911  0.77881076  0.87938336     0.94000
O44         O  0.57020667  0.75710150  0.90099784    -0.82100
O45         O  0.48876388  0.14632726  0.59751904    -0.81500
C46         C  0.31302701  0.01193291  0.58401472     0.97800
O47         O  0.34117149  0.00780352  0.59762962    -0.70600
O48         O  0.41102868  0.03294496  0.56835292    -0.74200
Al49       Al  0.40235222  0.04836389  0.60392220     1.49000
C50         C  0.43877403  0.05725281  0.55072000     0.93100
O51         O  0.40394946  0.13284728  0.54379534    -0.80500
O52         O  0.39210092  0.15583023  0.62256119    -0.74000
Al53       Al  0.44331698  0.13686871  0.57225676     1.90100
O54         O  0.35538318  0.13315030  0.57105945    -0.73100
O55         O  0.34102041  0.06897550  0.63720066    -0.72900
O56         O  0.31544360  0.04900384  0.58289855    -0.78600
O57         O  0.39473889  0.05676315  0.64153205    -0.76800
O58         O  0.40061287  0.09561249  0.59303169    -1.12900
O59         O  0.46344449  0.07875791  0.61149032    -0.72100
C60         C  0.49473841  0.11784260  0.60937636     0.98600
C61         C  0.37173776  0.13837183  0.54730328     0.95000
Al62       Al  0.35497822  0.10129412  0.60279931     1.55600
O63         O  0.45423208  0.09819705  0.55100726    -0.76800
C64         C  0.36130547  0.05521093  0.65147529     0.99200
C65         C  0.42439270  0.18900023  0.61113589     0.94000
O66         O  0.44198611  0.18452594  0.58959836    -0.82100
O67         O  0.32504569  0.82998074  0.89227053    -0.81500
C68         C  0.29698897  0.97163772  0.91176629     0.97800
O69         O  0.32620804  0.97372920  0.89560780    -0.70600
O70         O  0.36832225  0.94471341  0.92336654    -0.74200
Al71       Al  0.34326171  0.93035770  0.88854894     1.49000
C72         C  0.37185897  0.91970000  0.94005269     0.93100
O73         O  0.26327497  0.84743202  0.95046291    -0.80500
O74         O  0.22239630  0.82971176  0.87280742    -0.74000
Al75       Al  0.29393161  0.84184391  0.91986318     1.90100
O76         O  0.21265760  0.85044409  0.92660509    -0.73100
O77         O  0.26109585  0.91552057  0.85931837    -0.72900
O78         O  0.26153889  0.93536452  0.91492769    -0.78600
O79         O  0.32450768  0.92151228  0.85162250    -0.76800
O80         O  0.29373017  0.88490159  0.90078136    -1.12900
O81         O  0.37161512  0.89768795  0.88008920    -0.72100
C82         C  0.36095841  0.85769921  0.88137352     0.98600
C83         C  0.22595051  0.84329038  0.94906858     0.95000
Al84       Al  0.24337808  0.88287047  0.89388418     1.55600
O85         O  0.34650908  0.87863742  0.93949972    -0.76800
C86         C  0.29309657  0.92533383  0.84338091     0.99200
C87         C  0.22152363  0.79555216  0.88189762     0.94000
O88         O  0.24182707  0.79654317  0.90351860    -0.82100
O89         O  0.86777486  0.32420209  0.59386351    -0.81500
C90         C  0.98884576  0.26869139  0.59398375     0.97800
O91         O  0.99273228  0.29882003  0.61022524    -0.70600
O92         O  0.98355192  0.34903721  0.57629875    -0.74200
Al93       Al  0.95741515  0.32639248  0.61025513     1.49000
C94         C  0.96690710  0.35676032  0.55596505     0.93100
O95         O  0.88393525  0.25007874  0.54391270    -0.80500
O96         O  0.84163419  0.21369668  0.62102903    -0.74000
Al97       Al  0.87831992  0.28710868  0.57074999     1.90100
O98         O  0.86867219  0.19667761  0.57225692    -0.73100
O99         O  0.92255834  0.24159637  0.64234045    -0.72900
O100        O  0.95106667  0.23568622  0.58962719    -0.78600
O101        O  0.93727594  0.30934468  0.64672693    -0.76800
O102        O  0.91072918  0.28021049  0.59564457    -1.12900
O103        O  0.93244942  0.36418039  0.61208078    -0.72100
C104        C  0.89501767  0.35840861  0.60659254     0.98600
C105        C  0.86993483  0.20969452  0.54789389     0.95000
Al106      Al  0.89725889  0.22622388  0.60573302     1.55600
O107        O  0.92596813  0.33653835  0.55248209    -0.76800
C108        C  0.93336297  0.27502755  0.65729476     0.99200
C109        C  0.81339033  0.21690269  0.60659876     0.94000
O110        O  0.82457783  0.23998582  0.58478872    -0.82100
O111        O  0.17757611  0.48366801  0.89247854    -0.81500
C112        C  0.03456152  0.31262178  0.91142284     0.97800
O113        O  0.03347460  0.34157798  0.89679173    -0.70600
O114        O  0.06574732  0.41063882  0.92878055    -0.74200
Al115      Al  0.07681852  0.40225279  0.89186845     1.49000
C116        C  0.09272951  0.44005455  0.94470312     0.93100
O117        O  0.16227125  0.40072131  0.94905788    -0.80500
O118        O  0.17508318  0.38053952  0.86998052    -0.74000
Al119      Al  0.16723820  0.43946967  0.91953043     1.90100
O120        O  0.15439370  0.34659598  0.92318538    -0.73100
O121        O  0.08944759  0.33672911  0.85818998    -0.72900
O122        O  0.07011014  0.31237772  0.91334578    -0.78600
O123        O  0.08214710  0.39429995  0.85361548    -0.76800
O124        O  0.12237857  0.39685678  0.90096325    -1.12900
O125        O  0.10938869  0.46385564  0.88525326    -0.72100
C126        C  0.14942590  0.49223758  0.88315207     0.98600
C127        C  0.16232280  0.36501570  0.94652552     0.95000
Al128      Al  0.12237900  0.34798593  0.89179118     1.55600
O129        O  0.13330988  0.45604977  0.94158352    -0.76800
C130        C  0.07830157  0.35935207  0.84386153     0.99200
C131        C  0.21013017  0.41362057  0.87864982     0.94000
O132        O  0.21077779  0.43254550  0.90095932    -0.82100
O133        O  0.24366692  0.42579658  0.40894076    -0.81500
C134        C  0.29639630  0.30311135  0.41054796     0.97800
O135        O  0.26220524  0.30444466  0.41608025    -0.70600
O136        O  0.21727139  0.34152489  0.43280098    -0.74200
Al137      Al  0.24293926  0.33958212  0.39772637     1.49000
C138        C  0.23284371  0.36406199  0.45461924     0.93100
O139        O  0.35304195  0.45037709  0.43959725    -0.80500
O140        O  0.37221840  0.45355311  0.38178731    -0.74000
Al141      Al  0.29767289  0.43326611  0.42231195     1.90100
O142        O  0.36870408  0.40155151  0.42379604    -0.73100
O143        O  0.32172362  0.38337110  0.35284992    -0.72900
O144        O  0.32456186  0.33102595  0.39418410    -0.78600
O145        O  0.25719440  0.32618138  0.36125218    -0.76800
O146        O  0.29429000  0.38843850  0.40310703    -1.12900
O147        O  0.21884743  0.37076606  0.37936646    -0.72100
C148        C  0.21837349  0.40375531  0.38939464     0.98600
C149        C  0.37626140  0.43255862  0.43985643     0.95000
Al150      Al  0.34248211  0.39206109  0.38921948     1.55600
O151        O  0.27005147  0.39850100  0.45419927    -0.76800
C152        C  0.28842252  0.34884739  0.34460376     0.99200
C153        C  0.36163336  0.48266567  0.38219868     0.94000
O154        O  0.32576704  0.47428860  0.39295603    -0.82100
O155        O  0.45404520  0.25285940  0.10285012    -0.81500
C156        C  0.31619957  0.28759196  0.08942640     0.97800
O157        O  0.31099101  0.25226531  0.10025319    -0.70600
O158        O  0.34059616  0.21002475  0.07068855    -0.74200
Al159      Al  0.35314833  0.23241297  0.10718243     1.49000
C160        C  0.36640160  0.20943591  0.05309584     0.93100
O161        O  0.43743366  0.31918338  0.04895646    -0.80500
O162        O  0.45647774  0.35324112  0.12795299    -0.74000
Al163      Al  0.44309068  0.28572963  0.07741493     1.90100
O164        O  0.43587392  0.36782455  0.07635481    -0.73100
O165        O  0.37326378  0.31457963  0.14165776    -0.72900
O166        O  0.35370107  0.32138268  0.08844670    -0.78600
O167        O  0.35771676  0.24641853  0.14564078    -0.76800
O168        O  0.40005929  0.28384839  0.09761218    -1.12900
O169        O  0.38687020  0.20302698  0.11479716    -0.72100
C170        C  0.42762632  0.21631821  0.11343149     0.98600
C171        C  0.44210035  0.35656009  0.05290311     0.95000
Al172      Al  0.40418970  0.33454362  0.10780684     1.55600
O173        O  0.40709304  0.23493409  0.05539851    -0.76800
C174        C  0.36053981  0.28057074  0.15598964     0.99200
C175        C  0.49100580  0.35816381  0.11698911     0.94000
O176        O  0.48924297  0.33712964  0.09531417    -0.82100
O177        O  0.57649685  0.79034067  0.40084665    -0.81500
C178        C  0.69654571  0.96478164  0.40982480     0.97800
O179        O  0.69603387  0.92873137  0.41289382    -0.70600
O180        O  0.65898900  0.84293644  0.42384428    -0.74200
Al181      Al  0.66218004  0.87635872  0.39145628     1.49000
C182        C  0.63881028  0.83604255  0.44650366     0.93100
O183        O  0.55359198  0.87222575  0.43651555    -0.80500
O184        O  0.54960249  0.89015356  0.37475259    -0.74000
Al185      Al  0.56989036  0.83563447  0.41709899     1.90100
O186        O  0.59570797  0.93738727  0.41855403    -0.73100
O187        O  0.62303563  0.91545368  0.34777816    -0.72900
O188        O  0.66978863  0.96697817  0.39350023    -0.78600
O189        O  0.68011647  0.91029411  0.35742604    -0.76800
O190        O  0.61361806  0.87845459  0.39777255    -1.12900
O191        O  0.62971095  0.82310110  0.36999168    -0.72100
C192        C  0.59575275  0.78905279  0.37916361     0.98600
C193        C  0.56718708  0.91283499  0.43564492     0.95000
Al194      Al  0.60996177  0.92344630  0.38458846     1.55600
O195        O  0.60619992  0.84128421  0.44797132    -0.76800
C196        C  0.65927798  0.92024473  0.34072668     0.99200
C197        C  0.51956219  0.85052396  0.37713405     0.94000
O198        O  0.52706196  0.82359527  0.38952374    -0.82100
O199        O  0.74918185  0.18584955  0.09500580    -0.81500
C200        C  0.71791106  0.01382780  0.08842459     0.97800
O201        O  0.75453549  0.04733526  0.09487778    -0.70600
O202        O  0.79526470  0.12203221  0.06880898    -0.74200
Al203      Al  0.77170647  0.10779522  0.10461020     1.49000
C204        C  0.79040609  0.14161201  0.04891650     0.93100
O205        O  0.67558871  0.09111298  0.04919096    -0.80500
O206        O  0.65115678  0.08998783  0.12882775    -0.74000
Al207      Al  0.71265674  0.13639154  0.07383957     1.90100
O208        O  0.63307691  0.04516301  0.08082095    -0.73100
O209        O  0.69237802  0.04878909  0.14446628    -0.72900
O210        O  0.68237886  0.01282113  0.09345361    -0.78600
O211        O  0.76205894  0.09578533  0.14309452    -0.76800
O212        O  0.71856304  0.09965440  0.09659081    -1.12900
O213        O  0.79609783  0.16975258  0.11386123    -0.72100
C214        C  0.78352664  0.19694769  0.10850004     0.98600
C215        C  0.63959201  0.05867152  0.05642623     0.95000
Al216      Al  0.66974522  0.05353163  0.11069290     1.55600
O217        O  0.75929666  0.14890538  0.04895032    -0.76800
C218        C  0.72875715  0.06811583  0.15601036     0.99200
C219        C  0.64471429  0.11761072  0.11614101     0.94000
O220        O  0.66401060  0.13365488  0.09343478    -0.82100
O221        O  0.81502395  0.54972127  0.09174595    -0.81500
C222        C  0.98558005  0.69138697  0.08762663     0.97800
O223        O  0.95253156  0.69437515  0.09479714    -0.70600
O224        O  0.87717059  0.66005572  0.06892647    -0.74200
Al225      Al  0.89253060  0.64995233  0.10437037     1.49000
C226        C  0.86018551  0.63680162  0.04789370     0.93100
O227        O  0.91128506  0.57122363  0.04668960    -0.80500
O228        O  0.91035820  0.54855629  0.12644182    -0.74000
Al229      Al  0.86517256  0.56302116  0.07120985     1.90100
O230        O  0.95453753  0.57367136  0.07902368    -0.73100
O231        O  0.95296124  0.63082623  0.14207328    -0.72900
O232        O  0.98645205  0.65633188  0.09120230    -0.78600
O233        O  0.90436970  0.65044819  0.14300066    -0.76800
O234        O  0.90097003  0.60547277  0.09474839    -1.12900
O235        O  0.83200638  0.61126380  0.11397525    -0.72100
C236        C  0.80478619  0.57176079  0.10736979     0.98600
C237        C  0.94332350  0.56778458  0.05427703     0.95000
Al238      Al  0.94663888  0.60300405  0.10841855     1.55600
O239        O  0.85501597  0.59888448  0.04653199    -0.76800
C240        C  0.93240829  0.64500337  0.15510005     0.99200
C241        C  0.88288032  0.51405959  0.11387428     0.94000
O242        O  0.86651530  0.51636191  0.09114729    -0.82100
O243        O  0.20381231  0.72992563  0.38575814    -0.81500
C244        C  0.03673871  0.69501830  0.41401426     0.97800
O245        O  0.06440108  0.73035165  0.40188317    -0.70600
O246        O  0.14190699  0.77312810  0.42379933    -0.74200
Al247      Al  0.12313983  0.74930612  0.38818297     1.49000
C248        C  0.16716063  0.77079116  0.44084328     0.93100
O249        O  0.12698992  0.65922572  0.44163457    -0.80500
O250        O  0.10139126  0.62863614  0.36268734    -0.74000
Al251      Al  0.16275328  0.69504237  0.41236988     1.90100
O252        O  0.07360406  0.61225574  0.41550092    -0.73100
O253        O  0.05401634  0.66715424  0.35636018    -0.72900
O254        O  0.03737519  0.65980807  0.41096833    -0.78600
O255        O  0.10434843  0.73548683  0.35067526    -0.76800
O256        O  0.11931261  0.69752192  0.39564105    -1.12900
O257        O  0.18296885  0.77701775  0.37441414    -0.72100
C258        C  0.21084769  0.76454542  0.37385501     0.98600
C259        C  0.09438968  0.62154518  0.43771603     0.95000
Al260      Al  0.07088585  0.64687899  0.38699408     1.55600
O261        O  0.17977867  0.74370597  0.43677581    -0.76800
C262        C  0.07038377  0.70165259  0.34229941     0.99200
C263        C  0.13187704  0.62302814  0.37144042     0.94000
O264        O  0.15504658  0.64506776  0.39178672    -0.82100
C265        C  0.98001415  0.67101828  0.28934620    -0.05200
C266        C  0.00427978  0.69152105  0.26530592     0.09000
C267        C  0.05012151  0.71952043  0.26710804    -0.02600
C268        C  0.07194752  0.72439873  0.29241229    -0.00800
C269        C  0.04794609  0.70134073  0.31615797    -0.04500
C270        C  0.00153507  0.67576067  0.31459032     0.02600
C271        C  0.98199087  0.67907182  0.23775369     0.09400
C272        C  0.07500474  0.74217136  0.24264849     0.35300
C273        C  0.97535461  0.65355530  0.33881520     0.38700
C274        C  0.97499552  0.70889765  0.22229984    -0.04800
C275        C  0.95593602  0.69705584  0.19573541     0.02300
C276        C  0.94276810  0.65489432  0.18487093    -0.04400
C277        C  0.94661683  0.62399298  0.20140197    -0.00700
C278        C  0.96731594  0.63643291  0.22725164    -0.03200
C279        C  0.98840595  0.75207095  0.23350881     0.36000
C280        C  0.92898841  0.57895695  0.19202529     0.39700
C281        C  0.95193997  0.72895863  0.17911679     0.38800
C282        C  0.97472213  0.60556777  0.24273643     0.35700
C283        C  0.93271292  0.64346475  0.28779859     0.36400
C284        C  0.11927263  0.75110122  0.29344124     0.39600
N285        N  0.94876316  0.75441320  0.16581966    -0.38400
N286        N  0.99934709  0.78658438  0.24249246    -0.40000
N287        N  0.91482549  0.54272608  0.18524124    -0.37800
N288        N  0.98061882  0.58097825  0.25506116    -0.40100
N289        N  0.09473938  0.76056586  0.22316215    -0.39900
N290        N  0.15704217  0.77237345  0.29426949    -0.37500
N291        N  0.95431319  0.63542121  0.35796319    -0.38600
N292        N  0.89507963  0.62117596  0.28648055    -0.40300
C293        C  0.84154125  0.31989769  0.09873328    -0.05200
C294        C  0.84023562  0.33459105  0.12564470     0.09000
C295        C  0.82591093  0.30437866  0.14781212    -0.02600
C296        C  0.81071542  0.25923862  0.14281554    -0.00800
C297        C  0.81013402  0.24433203  0.11568173    -0.04500
C298        C  0.82706881  0.27518394  0.09382768     0.02600
C299        C  0.85162190  0.38147809  0.12973067     0.09400
C300        C  0.82512165  0.31955164  0.17549992     0.35300
C301        C  0.82785486  0.26072147  0.06584626     0.38700
C302        C  0.81812297  0.39199728  0.13018566    -0.04800
C303        C  0.82854513  0.43612128  0.12717128     0.02300
C304        C  0.87247761  0.47004117  0.12407146    -0.04400
C305        C  0.90621197  0.46002022  0.12657059    -0.00700
C306        C  0.89576252  0.41579498  0.12901487    -0.03200
C307        C  0.77278171  0.35719739  0.13247888     0.36000
C308        C  0.95168349  0.49482454  0.12483486     0.39700
C309        C  0.79410764  0.44678190  0.12687218     0.38800
C310        C  0.93033992  0.40528120  0.12917283     0.35700
C311        C  0.85523738  0.35043714  0.07571567     0.36400
C312        C  0.79348656  0.22778761  0.16525163     0.39600
N313        N  0.76689777  0.45568236  0.12669062    -0.38400
N314        N  0.73656632  0.32955693  0.13451449    -0.40000
N315        N  0.98796321  0.52260582  0.12359918    -0.37800
N316        N  0.95793210  0.39689051  0.12913121    -0.40100
N317        N  0.82438949  0.33181771  0.19756812    -0.39900
N318        N  0.77977247  0.20259319  0.18313705    -0.37500
N319        N  0.82870154  0.25002210  0.04335839    -0.38600
N320        N  0.86576841  0.37475330  0.05738933    -0.40300
C321        C  0.42470412  0.85443343  0.34207932    -0.05200
C322        C  0.38872112  0.82282161  0.35750506     0.09000
C323        C  0.39479570  0.79637632  0.37664311    -0.02600
C324        C  0.43694224  0.80311831  0.38164303    -0.00800
C325        C  0.47404826  0.83685217  0.36750365    -0.04500
C326        C  0.46710252  0.86124464  0.34680892     0.02600
C327        C  0.34432273  0.81807477  0.35505701     0.09400
C328        C  0.35750068  0.76329014  0.39222416     0.35300
C329        C  0.50342196  0.89366071  0.33033423     0.38700
C330        C  0.31270316  0.78608943  0.33724561    -0.04800
C331        C  0.26811375  0.77310043  0.34036423     0.02300
C332        C  0.25495005  0.79158851  0.36151587    -0.04400
C333        C  0.28713961  0.82729369  0.37698977    -0.00700
C334        C  0.33172012  0.84025007  0.37396385    -0.03200
C335        C  0.32562097  0.76382733  0.31746963     0.36000
C336        C  0.27394613  0.84766846  0.39800093     0.39700
C337        C  0.23518111  0.73829957  0.32325762     0.38800
C338        C  0.36415193  0.87341249  0.39217076     0.35700
C339        C  0.41812640  0.88075900  0.32185815     0.36400
C340        C  0.44163051  0.77671986  0.40275882     0.39600
N341        N  0.20879801  0.71043583  0.30971093    -0.38400
N342        N  0.33603973  0.74593905  0.30183943    -0.40000
N343        N  0.26337126  0.86395903  0.41470768    -0.37800
N344        N  0.39004200  0.89956281  0.40682959    -0.40100
N345        N  0.32772447  0.73715767  0.40468137    -0.39900
N346        N  0.44497474  0.75560703  0.41974410    -0.37500
N347        N  0.53236804  0.91963460  0.31722814    -0.38600
N348        N  0.41281814  0.90177320  0.30574562    -0.40300
C349        C  0.70397541  0.04580188  0.23224736    -0.05200
C350        C  0.71884040  0.01612801  0.23735183     0.09000
C351        C  0.74200774  0.00819511  0.21653965    -0.02600
C352        C  0.74812287  0.02789466  0.19030024    -0.00800
C353        C  0.73146339  0.05596276  0.18484970    -0.04500
C354        C  0.71038330  0.06574671  0.20608749     0.02600
C355        C  0.70632799  0.99002698  0.26363300     0.09400
C356        C  0.75764021  0.97804333  0.22178155     0.35300
C357        C  0.69402410  0.09526672  0.20063289     0.38700
C358        C  0.66969595  0.94698460  0.26401195    -0.04800
C359        C  0.65610761  0.92284379  0.28887676     0.02300
C360        C  0.67866772  0.94160840  0.31373066    -0.04400
C361        C  0.71657164  0.98407976  0.31306945    -0.00700
C362        C  0.72997764  0.00837736  0.28817501    -0.03200
C363        C  0.64493866  0.92817833  0.23887423     0.36000
C364        C  0.74099282  0.00376185  0.33814084     0.39700
C365        C  0.61944231  0.87820990  0.28854800     0.38800
C366        C  0.76694117  0.05304488  0.28797444     0.35700
C367        C  0.68005468  0.05397683  0.25349436     0.36400
C368        C  0.76871915  0.01677486  0.16829602     0.39600
N369        N  0.59054391  0.84237492  0.28733818    -0.38400
N370        N  0.62518501  0.91341356  0.21880808    -0.40000
N371        N  0.76109560  0.02002626  0.35787134    -0.37800
N372        N  0.79609711  0.08888005  0.28779744    -0.40100
N373        N  0.76992843  0.95382703  0.22598918    -0.39900
N374        N  0.78487927  0.00776312  0.15065537    -0.37500
N375        N  0.68106287  0.11886066  0.19616741    -0.38600
N376        N  0.66085678  0.06034619  0.27045293    -0.40300
C377        C  0.70219085  0.50627570  0.15068424    -0.05200
C378        C  0.66967861  0.49280211  0.13012319     0.09000
C379        C  0.68168703  0.51057289  0.10327849    -0.02600
C380        C  0.72592471  0.53880615  0.09644603    -0.00800
C381        C  0.75868188  0.55021699  0.11652399    -0.04500
C382        C  0.74673548  0.53502425  0.14387096     0.02600
C383        C  0.62312848  0.45756195  0.13538502     0.09400
C384        C  0.64847097  0.49885901  0.08233869     0.35300
C385        C  0.78053019  0.54673512  0.16440894     0.38700
C386        C  0.58983236  0.46832501  0.13605156    -0.04800
C387        C  0.54565325  0.43515206  0.13241099     0.02300
C388        C  0.53465040  0.39098732  0.12808725    -0.04400
C389        C  0.56740872  0.37973766  0.13060600    -0.00700
C390        C  0.61148435  0.41285453  0.13432616    -0.03200
C391        C  0.60153102  0.51403583  0.13850043     0.36000
C392        C  0.55573035  0.33399672  0.12860644     0.39700
C393        C  0.51223343  0.44720310  0.13083590     0.38800
C394        C  0.64498219  0.40091712  0.13558114     0.35700
C395        C  0.68983810  0.48980372  0.17857875     0.36400
C396        C  0.73778358  0.55476316  0.06831525     0.39600
N397        N  0.48558735  0.45685036  0.12957741    -0.38400
N398        N  0.61097016  0.55055542  0.14029573    -0.40000
N399        N  0.54594060  0.29738450  0.12697372    -0.37800
N400        N  0.67119910  0.39070025  0.13680112    -0.40100
N401        N  0.62193290  0.49004038  0.06574969    -0.39900
N402        N  0.74671538  0.56693387  0.04577203    -0.37500
N403        N  0.80779469  0.55615416  0.18060244    -0.38600
N404        N  0.67996567  0.47668956  0.20088031    -0.40300
C405        C  0.53664883  0.10858832  0.13873073    -0.05200
C406        C  0.54548420  0.15184132  0.13379258     0.09000
C407        C  0.58872150  0.18486013  0.12716472    -0.02600
C408        C  0.62188008  0.17418634  0.12348916    -0.00800
C409        C  0.61241346  0.13019497  0.12636101    -0.04500
C410        C  0.56980731  0.09772439  0.13503810     0.02600
C411        C  0.50847559  0.16117727  0.13101893     0.09400
C412        C  0.59885736  0.22969325  0.12263910     0.35300
C413        C  0.55882796  0.05233857  0.13803169     0.38700
C414        C  0.49744128  0.18114771  0.15249594    -0.04800
C415        C  0.46665831  0.19495161  0.14787213     0.02300
C416        C  0.44650514  0.18870032  0.12182938    -0.04400
C417        C  0.45545569  0.16602903  0.10105083    -0.00700
C418        C  0.48609744  0.15233584  0.10563205    -0.03200
C419        C  0.51887766  0.18884185  0.17899500     0.36000
C420        C  0.43551808  0.15936090  0.07406014     0.39700
C421        C  0.45735100  0.21777498  0.16935384     0.38800
C422        C  0.49652770  0.13117941  0.08355829     0.35700
C423        C  0.49261527  0.07476038  0.14623334     0.36400
C424        C  0.66566973  0.20857910  0.11581776     0.39600
N425        N  0.44964948  0.23599480  0.18636381    -0.38400
N426        N  0.53589820  0.19496712  0.20021608    -0.40000
N427        N  0.42039663  0.15371735  0.05225545    -0.37800
N428        N  0.50504973  0.11437525  0.06603797    -0.40100
N429        N  0.60785463  0.26573158  0.11889549    -0.39900
N430        N  0.70049338  0.23587474  0.10946401    -0.37500
N431        N  0.54988136  0.01603255  0.14035129    -0.38600
N432        N  0.45738407  0.04790748  0.15218045    -0.40300
C433        C  0.46134030  0.57671221  0.34647570    -0.05200
C434        C  0.46833138  0.61266923  0.36287997     0.09000
C435        C  0.43752625  0.60691343  0.38337510    -0.02600
C436        C  0.40039739  0.56511376  0.38804919    -0.00800
C437        C  0.39428541  0.52809635  0.37266450    -0.04500
C438        C  0.42458814  0.53455925  0.35129304     0.02600
C439        C  0.50851929  0.65695010  0.35934763     0.09400
C440        C  0.44551167  0.64381363  0.40080837     0.35300
C441        C  0.41945279  0.49772598  0.33490040     0.38700
C442        C  0.50582075  0.69001809  0.34480253    -0.04800
C443        C  0.53877721  0.73447416  0.34796317     0.02300
C444        C  0.57522972  0.74592514  0.36509614    -0.04400
C445        C  0.58039912  0.71224495  0.37684031    -0.00700
C446        C  0.54682466  0.66780027  0.37426841    -0.03200
C447        C  0.46695834  0.67855916  0.32878729     0.36000
C448        C  0.61812367  0.72383149  0.39404896     0.39700
C449        C  0.53185781  0.76845908  0.33664613     0.38800
C450        C  0.54970698  0.63368924  0.38911063     0.35700
C451        C  0.49305491  0.58292341  0.32535194     0.36400
C452        C  0.37046878  0.56025962  0.41012553     0.39600
N453        N  0.52487763  0.79472143  0.32780492    -0.38400
N454        N  0.43584152  0.66934862  0.31614496    -0.40000
N455        N  0.64821501  0.73320425  0.40781223    -0.37800
N456        N  0.55172982  0.60641222  0.40108120    -0.40100
N457        N  0.45224312  0.67315847  0.41487743    -0.39900
N458        N  0.34677844  0.55668905  0.42776373    -0.37500
N459        N  0.41634634  0.46861228  0.32197793    -0.38600
N460        N  0.51851991  0.58792047  0.30860186    -0.40300
C461        C  0.36684331  0.31468038  0.23102922    -0.05200
C462        C  0.32206034  0.29718488  0.23740049     0.09000
C463        C  0.29009828  0.27051209  0.21774575    -0.02600
C464        C  0.30279013  0.26174607  0.19192698    -0.00800
C465        C  0.34753913  0.28148832  0.18499712    -0.04500
C466        C  0.37953096  0.30791363  0.20465135     0.02600
C467        C  0.30882876  0.30904231  0.26415057     0.09400
C468        C  0.24424348  0.25419782  0.22350761     0.35300
C469        C  0.42556890  0.32929800  0.19740220     0.38700
C470        C  0.31710056  0.35225290  0.26838465    -0.04800
C471        C  0.30769843  0.36459570  0.29410243     0.02300
C472        C  0.28906664  0.33358303  0.31585787    -0.04400
C473        C  0.27805770  0.28949884  0.31089438    -0.00700
C474        C  0.28855735  0.27753125  0.28533873    -0.03200
C475        C  0.33616363  0.38436703  0.24630359     0.36000
C476        C  0.25809798  0.25673501  0.33250099     0.39700
C477        C  0.31752591  0.40952450  0.29804070     0.38800
C478        C  0.28022013  0.23315051  0.28123486     0.35700
C479        C  0.39993029  0.34067928  0.25140879     0.36400
C480        C  0.26980061  0.23427393  0.17187983     0.39600
N481        N  0.32557848  0.44548646  0.30090094    -0.38400
N482        N  0.35156231  0.40993719  0.22869674    -0.40000
N483        N  0.24195863  0.23041427  0.34962869    -0.37800
N484        N  0.27361698  0.19775942  0.27794922    -0.40100
N485        N  0.20772292  0.24152728  0.22812785    -0.39900
N486        N  0.24353605  0.21223764  0.15588482    -0.37500
N487        N  0.46228861  0.34665253  0.19159875    -0.38600
N488        N  0.42632736  0.36148154  0.26765676    -0.40300
C489        C  0.10840437  0.50714530  0.35697008    -0.05200
C490        C  0.15108542  0.51378259  0.35830483     0.09000
C491        C  0.18732478  0.55711348  0.35819003    -0.02600
C492        C  0.18089962  0.59343556  0.35904975    -0.00800
C493        C  0.13812564  0.58685362  0.36073769    -0.04500
C494        C  0.10181419  0.54345227  0.35844514     0.02600
C495        C  0.15820231  0.47596073  0.36377413     0.09400
C496        C  0.23140102  0.56434190  0.35926546     0.35300
C497        C  0.05752394  0.53542201  0.36034792     0.38700
C498        C  0.17740962  0.46194865  0.34361620    -0.04800
C499        C  0.19307388  0.43362010  0.35104705     0.02300
C500        C  0.18905803  0.41888731  0.37854528    -0.04400
C501        C  0.16388839  0.42752179  0.39737997    -0.00700
C502        C  0.14977931  0.45707836  0.39039311    -0.03200
C503        C  0.18290380  0.47847618  0.31564966     0.36000
C504        C  0.15183373  0.40527147  0.42382079     0.39700
C505        C  0.21456470  0.42093391  0.33068997     0.38800
C506        C  0.12919280  0.47030303  0.41119526     0.35700
C507        C  0.07118012  0.46265029  0.35592807     0.36400
C508        C  0.21866923  0.63762554  0.35973151     0.39600
N509        N  0.23101053  0.41022946  0.31423106    -0.38400
N510        N  0.18727642  0.49180996  0.29335467    -0.40000
N511        N  0.14077477  0.38665604  0.44460467    -0.37800
N512        N  0.11292127  0.48116828  0.42769531    -0.40100
N513        N  0.26650469  0.57003938  0.36017204    -0.39900
N514        N  0.24915392  0.67261572  0.36046550    -0.37500
N515        N  0.02210575  0.52874223  0.36202050    -0.38600
N516        N  0.04152700  0.42711512  0.35526311    -0.40300
C517        C  0.21603491  0.26245584  0.04546114    -0.05200
C518        C  0.22552921  0.30583600  0.03951952     0.09000
C519        C  0.25911880  0.34110557  0.05458420    -0.02600
C520        C  0.28357479  0.33329373  0.07430051    -0.00800
C521        C  0.27942238  0.29112764  0.07656953    -0.04500
C522        C  0.24401683  0.25526706  0.06283939     0.02600
C523        C  0.20318166  0.31521210  0.01605589     0.09400
C524        C  0.27083578  0.38611431  0.04855717     0.35300
C525        C  0.23758270  0.21138779  0.06517007     0.38700
C526        C  0.17947518  0.33703219  0.02078721    -0.04800
C527        C  0.16629936  0.35350511  0.99838188     0.02300
C528        C  0.17316706  0.34499993  0.97067962    -0.04400
C529        C  0.19063088  0.31691887  0.96634827    -0.00700
C530        C  0.20829274  0.30501646  0.98856094    -0.03200
C531        C  0.16854198  0.34247109  0.04884593     0.36000
C532        C  0.18892299  0.29806380  0.93941877     0.39700
C533        C  0.14413627  0.37774047  0.00411516     0.38800
C534        C  0.23304089  0.28333765  0.98284932     0.35700
C535        C  0.17817387  0.22526727  0.03298658     0.36400
C536        C  0.31352389  0.36928410  0.09204930     0.39600
N537        N  0.12652855  0.39714810  0.00873805    -0.38400
N538        N  0.15971253  0.34670371  0.07121958    -0.40000
N539        N  0.18620989  0.28147775  0.91828770    -0.37800
N540        N  0.25272718  0.26600721  0.97832279    -0.40100
N541        N  0.28033331  0.42201860  0.04367334    -0.39900
N542        N  0.33716415  0.39792394  0.10628525    -0.37500
N543        N  0.23251598  0.17634657  0.06686943    -0.38600
N544        N  0.14794343  0.19559540  0.02303647    -0.40300
C545        C  0.92790800  0.26540693  0.95331222    -0.05200
C546        C  0.92233914  0.22506540  0.96255538     0.09000
C547        C  0.95132970  0.21142281  0.95316568    -0.02600
C548        C  0.98714196  0.23902421  0.93580524    -0.00800
C549        C  0.99394702  0.28049587  0.92715049    -0.04500
C550        C  0.96247571  0.29236635  0.93517349     0.02600
C551        C  0.88822255  0.19921427  0.98414217     0.09400
C552        C  0.94464754  0.16914972  0.96194160     0.35300
C553        C  0.96554574  0.33298723  0.92588622     0.38700
C554        C  0.84332838  0.17458959  0.97727483    -0.04800
C555        C  0.81123273  0.15451884  0.99824408     0.02300
C556        C  0.82377146  0.15901177  0.02628155    -0.04400
C557        C  0.86893764  0.18263267  0.03297120    -0.00700
C558        C  0.90081917  0.20267877  0.01203287    -0.03200
C559        C  0.83022216  0.17063151  0.94862015     0.36000
C560        C  0.88289720  0.18867691  0.06157158     0.39700
C561        C  0.76534822  0.12853726  0.99093272     0.38800
C562        C  0.94679974  0.22862645  0.01927301     0.35700
C563        C  0.89916270  0.28037024  0.96372816     0.36400
C564        C  0.01642251  0.22410241  0.92664030     0.39600
N565        N  0.72870473  0.10761189  0.98520549    -0.38400
N566        N  0.81978031  0.16762992  0.92574020    -0.40000
N567        N  0.89416893  0.19359099  0.08435298    -0.37800
N568        N  0.98349433  0.24936470  0.02490475    -0.40100
N569        N  0.93919541  0.13539608  0.96902135    -0.39900
N570        N  0.03975821  0.21213404  0.91933631    -0.37500
N571        N  0.96701385  0.36497974  0.91864022    -0.38600
N572        N  0.87651217  0.29247911  0.97216933    -0.40300
C573        C  0.01986409  0.44996708  0.99780489    -0.05200
C574        C  0.03236678  0.49457721  0.99423968     0.09000
C575        C  0.06849499  0.52213563  0.97740524    -0.02600
C576        C  0.09141758  0.50496461  0.96366777    -0.00800
C577        C  0.07634438  0.45942769  0.96501300    -0.04500
C578        C  0.04134153  0.43216453  0.98275639     0.02600
C579        C  0.00901952  0.51366707  0.00899669     0.09400
C580        C  0.08166135  0.56818317  0.97386732     0.35300
C581        C  0.02847880  0.38626956  0.98614994     0.38700
C582        C  0.03057471  0.54419233  0.03033794    -0.04800
C583        C  0.01115744  0.56634614  0.04231499     0.02300
C584        C  0.96743367  0.55404136  0.03554892    -0.04400
C585        C  0.94568643  0.52306035  0.01418961    -0.00700
C586        C  0.96716869  0.50411164  0.00031835    -0.03200
C587        C  0.07266109  0.55231004  0.04026556     0.36000
C588        C  0.90070270  0.50889041  0.00725631     0.39700
C589        C  0.03678222  0.60202775  0.06153036     0.38800
C590        C  0.94621495  0.47454409  0.97722242     0.35700
C591        C  0.98524468  0.42264017  0.01705057     0.36400
C592        C  0.13016736  0.53454806  0.94796923     0.39600
N593        N  0.05754993  0.63041597  0.07675362    -0.38400
N594        N  0.10605096  0.55853451  0.04823709    -0.40000
N595        N  0.86471379  0.49733962  0.00181230    -0.37800
N596        N  0.92966715  0.45105258  0.95873178    -0.40100
N597        N  0.09215636  0.60486400  0.97119824    -0.39900
N598        N  0.16157365  0.55930978  0.93626614    -0.37500
N599        N  0.01855255  0.34978666  0.98908548    -0.38600
N600        N  0.95779917  0.40079569  0.03251251    -0.40300
C601        C  0.95205830  0.30485913  0.73358697    -0.05200
C602        C  0.98479884  0.29473977  0.73980034     0.09000
C603        C  0.99598395  0.27252305  0.72010396    -0.02600
C604        C  0.97627853  0.26263138  0.69377369    -0.00800
C605        C  0.94621762  0.27625315  0.68666093    -0.04500
C606        C  0.93357976  0.29664737  0.70694741     0.02600
C607        C  0.00994191  0.31080089  0.76623601     0.09400
C608        C  0.02932882  0.26167105  0.72653995     0.35300
C609        C  0.90232034  0.31023644  0.70031896     0.38700
C610        C  0.00164031  0.28162672  0.78831070    -0.04800
C611        C  0.02490592  0.29727220  0.81331447     0.02300
C612        C  0.05676372  0.34254888  0.81652582    -0.04400
C613        C  0.06490604  0.37165780  0.79423223    -0.00700
C614        C  0.04175564  0.35576846  0.76922661    -0.03200
C615        C  0.96803453  0.23566162  0.78555136     0.36000
C616        C  0.09717948  0.41805504  0.79664149     0.39700
C617        C  0.01397414  0.26688513  0.83619710     0.38800
C618        C  0.05026524  0.38585968  0.74648945     0.35700
C619        C  0.93820700  0.32470385  0.75456300     0.36400
C620        C  0.98943072  0.24117683  0.67348444     0.39600
N621        N  0.00519594  0.24266539  0.85444517    -0.38400
N622        N  0.94117369  0.19900340  0.78338464    -0.40000
N623        N  0.12251987  0.45529784  0.79792406    -0.37800
N624        N  0.05671455  0.40972454  0.72835177    -0.40100
N625        N  0.05594466  0.25305704  0.73169362    -0.39900
N626        N  0.99986653  0.22397029  0.65733373    -0.37500
N627        N  0.87769631  0.32150473  0.69509353    -0.38600
N628        N  0.92717139  0.34036369  0.77142503    -0.40300
C629        C  0.16374952  0.36605017  0.51478955    -0.05200
C630        C  0.14261045  0.32181996  0.52388098     0.09000
C631        C  0.15604238  0.29342323  0.51273717    -0.02600
C632        C  0.18661913  0.30756621  0.49075994    -0.00800
C633        C  0.20580926  0.35097505  0.48049055    -0.04500
C634        C  0.19633505  0.38095439  0.49394103     0.02600
C635        C  0.10374104  0.30409316  0.54325884     0.09400
C636        C  0.13776857  0.24927709  0.52370330     0.35300
C637        C  0.21856357  0.42677872  0.48553014     0.38700
C638        C  0.06137066  0.27493875  0.53314900    -0.04800
C639        C  0.02430629  0.25956313  0.55052897     0.02300
C640        C  0.02851707  0.27503237  0.57812917    -0.04400
C641        C  0.07147685  0.30222680  0.58866234    -0.00700
C642        C  0.10869948  0.31631213  0.57139345    -0.03200
C643        C  0.05569397  0.26168932  0.50432279     0.36000
C644        C  0.07776238  0.31513442  0.61749022     0.39700
C645        C  0.98206852  0.22807069  0.53925028     0.38800
C646        C  0.15229568  0.34362891  0.58251958     0.35700
C647        C  0.15040732  0.39571963  0.52590636     0.36400
C648        C  0.19910784  0.27759415  0.47918268     0.39600
N649        N  0.94929436  0.20223250  0.52942106    -0.38400
N650        N  0.05122721  0.25108640  0.48137706    -0.40000
N651        N  0.08294198  0.32537848  0.64050824    -0.37800
N652        N  0.18715475  0.36544036  0.59132149    -0.40100
N653        N  0.12320972  0.21409664  0.53254013    -0.39900
N654        N  0.20908764  0.25347559  0.47026606    -0.37500
N655        N  0.23632797  0.46337461  0.47890860    -0.38600
N656        N  0.13963079  0.41930452  0.53473661    -0.40300
C657        C  0.01658838  0.42587883  0.49208351    -0.05200
C658        C  0.04044048  0.46800798  0.50419582     0.09000
C659        C  0.04576144  0.47261253  0.53298291    -0.02600
C660        C  0.02376835  0.43544532  0.54989589    -0.00800
C661        C  0.99590079  0.39364160  0.53791207    -0.04500
C662        C  0.99417872  0.38854959  0.50902597     0.02600
C663        C  0.05495021  0.50790461  0.48724180     0.09400
C664        C  0.07200097  0.51598056  0.54524647     0.35300
C665        C  0.97034093  0.34501525  0.49685791     0.38700
C666        C  0.02381611  0.51924932  0.47914147    -0.04800
C667        C  0.03724095  0.55835864  0.46455217     0.02300
C668        C  0.08187015  0.58597066  0.45774217    -0.04400
C669        C  0.11305525  0.57457892  0.46596971    -0.05500
C670        C  0.09956024  0.53567808  0.48095511    -0.03200
C671        C  0.97776565  0.49020111  0.48548857     0.36000
C672        C  0.15840419  0.60094381  0.45731470     0.39700
C673        C  0.00477618  0.56952132  0.45618183     0.38800
C674        C  0.13124027  0.52347266  0.48929032     0.35700
C675        C  0.01397959  0.42130904  0.46228218     0.36400
C676        C  0.02824015  0.44104906  0.57965420     0.39600
N677        N  0.97831130  0.57761761  0.44959103    -0.38400
N678        N  0.94105657  0.46679314  0.49031437    -0.40000
N679        N  0.19449752  0.62170397  0.45023902    -0.37800
N680        N  0.15645887  0.51366547  0.49590984    -0.40100
N681        N  0.09304068  0.55053382  0.55496542    -0.39900
N682        N  0.03234073  0.44594150  0.60331827    -0.37500
N683        N  0.95203248  0.31030043  0.48704086    -0.38600
N684        N  0.01183622  0.41762022  0.43850362    -0.40300
C685        C  0.73982020  0.06393054  0.45843112    -0.05200
C686        C  0.78330578  0.07433560  0.46278539     0.09000
C687        C  0.79940966  0.05070991  0.44816734    -0.02600
C688        C  0.77156479  0.01557007  0.43040156    -0.00800
C689        C  0.72766419  0.00468573  0.42625473    -0.04500
C690        C  0.71297133  0.03105092  0.43932106     0.02600
C691        C  0.81151031  0.11029951  0.48290494     0.09400
C692        C  0.84477443  0.06277101  0.45135236     0.35300
C693        C  0.67084669  0.02621725  0.43306661     0.38700
C694        C  0.82239086  0.09976766  0.50855605    -0.04800
C695        C  0.84419895  0.13265859  0.52884118     0.02300
C696        C  0.85294836  0.17648811  0.52453278    -0.04400
C697        C  0.84260413  0.18688728  0.49829380    -0.00700
C698        C  0.82352452  0.15435439  0.47745438    -0.03200
C699        C  0.80963334  0.05443325  0.51451323     0.36000
C700        C  0.84859531  0.23003267  0.49280641     0.39700
C701        C  0.85737632  0.12047263  0.55407869     0.38800
C702        C  0.81474057  0.16581949  0.45042658     0.35700
C703        C  0.72222149  0.08670568  0.47413676     0.36400
C704        C  0.78898601  0.99238553  0.41515373     0.39600
N705        N  0.86789444  0.11052483  0.57409507    -0.38400
N706        N  0.79946831  0.01830342  0.51924670    -0.40000
N707        N  0.85258422  0.26409145  0.48820985    -0.37800
N708        N  0.80756497  0.17473607  0.42886919    -0.40100
N709        N  0.88098246  0.07242948  0.45397465    -0.39900
N710        N  0.80299959  0.97411020  0.40281734    -0.37500
N711        N  0.63848433  0.02547590  0.42851279    -0.38600
N712        N  0.70814620  0.10478478  0.48661999    -0.40300
C713        C  0.21056267  0.70014097  0.84180948    -0.05200
C714        C  0.17833145  0.66555576  0.85802463     0.09000
C715        C  0.15235878  0.67419409  0.87628022    -0.02600
C716        C  0.16190903  0.71776618  0.88048697    -0.00800
C717        C  0.19848372  0.75289425  0.86745326    -0.04500
C718        C  0.22135810  0.74396123  0.84698077     0.02600
C719        C  0.17552604  0.62162242  0.85893985     0.09400
C720        C  0.11808554  0.63874428  0.89236879     0.35300
C721        C  0.25898266  0.78015363  0.83348440     0.38700
C722        C  0.20781667  0.61722002  0.87311404    -0.04800
C723        C  0.20177620  0.57505903  0.87847361     0.02300
C724        C  0.16201724  0.53655349  0.87104149    -0.04400
C725        C  0.13164096  0.54158642  0.85448808    -0.00700
C726        C  0.13872171  0.58387127  0.84835871    -0.03200
C727        C  0.24609075  0.65621855  0.88384371     0.36000
C728        C  0.09217236  0.50356965  0.84409784     0.39700
C729        C  0.23544600  0.57206233  0.89348329     0.38800
C730        C  0.10712619  0.58866398  0.83206429     0.35700
C731        C  0.23438278  0.69080778  0.82112065     0.36400
C732        C  0.13635746  0.72703585  0.89990012     0.39600
N733        N  0.26249002  0.57015491  0.90558303    -0.38400
N734        N  0.27640928  0.68745454  0.89239468    -0.40000
N735        N  0.06033439  0.47354403  0.83594108    -0.37800
N736        N  0.08189550  0.59251437  0.81914311    -0.40100
N737        N  0.09075007  0.61032344  0.90512647    -0.39900
N738        N  0.11596163  0.73457301  0.91528665    -0.37500
N739        N  0.28919798  0.80916791  0.82298822    -0.38600
N740        N  0.25326062  0.68328347  0.80453645    -0.40300
C741        C  0.35428421  0.07425092  0.95782999    -0.05200
C742        C  0.31917330  0.07989727  0.96576897     0.09000
C743        C  0.27759404  0.05273292  0.95394221    -0.02600
C744        C  0.27055806  0.01856056  0.93544090    -0.00800
C745        C  0.30539083  0.01160886  0.92810272    -0.04500
C746        C  0.34789854  0.04131259  0.93860024     0.02600
C747        C  0.32614873  0.11351782  0.98744476     0.09400
C748        C  0.24185930  0.05969516  0.96121035     0.35300
C749        C  0.38570647  0.03835951  0.93041561     0.38700
C750        C  0.35086842  0.15898943  0.98137887    -0.04800
C751        C  0.36246081  0.19051172  0.00263114     0.02300
C752        C  0.34918663  0.17686744  0.03012277    -0.04400
C753        C  0.32245832  0.13142586  0.03594240    -0.00700
C754        C  0.31118058  0.09993707  0.01471459    -0.03200
C755        C  0.36525882  0.17328721  0.95330315     0.36000
C756        C  0.30915324  0.11675338  0.06413260     0.39700
C757        C  0.38796828  0.23709219  0.99618169     0.38800
C758        C  0.28571772  0.05336079  0.02117879     0.35700
C759        C  0.39700119  0.10156698  0.97032895     0.36400
C760        C  0.22725101  0.99066638  0.92401903     0.39600
N761        N  0.40822297  0.27425307  0.99104792    -0.38400
N762        N  0.37692775  0.18473552  0.93092162    -0.40000
N763        N  0.29872051  0.10503691  0.08663068    -0.37800
N764        N  0.26530329  0.01621989  0.02633126    -0.40100
N765        N  0.21345914  0.06537210  0.96712517    -0.39900
N766        N  0.19256025  0.96821845  0.91513811    -0.37500
N767        N  0.41692584  0.03774888  0.92417256    -0.38600
N768        N  0.43097044  0.12327511  0.98034725    -0.40300
C769        C  0.53529756  0.97172621  0.02367830    -0.05200
C770        C  0.52202427  0.99812768  0.01004566     0.09000
C771        C  0.54865534  0.04430002  0.00998133    -0.02600
C772        C  0.58884834  0.06435848  0.02383704    -0.00800
C773        C  0.60245590  0.03797554  0.03747504    -0.04500
C774        C  0.57571348  0.99158328  0.03722001     0.02600
C775        C  0.48261794  0.97711391  0.99266963     0.09400
C776        C  0.53433283  0.07098668  0.99576827     0.35300
C777        C  0.58948476  0.96416044  0.05104825     0.38700
C778        C  0.44107624  0.96407935  0.00391926    -0.04800
C779        C  0.40417906  0.94492889  0.98667212     0.02300
C780        C  0.40932717  0.93887024  0.95848779    -0.04400
C781        C  0.45110045  0.95266423  0.94726083    -0.00700
C782        C  0.48765836  0.97127262  0.96446962    -0.03200
C783        C  0.43660536  0.97073559  0.03301802     0.36000
C784        C  0.45706989  0.94876559  0.91794303     0.39700
C785        C  0.36141694  0.93326640  0.99745629     0.38800
C786        C  0.53071018  0.98474794  0.95321019     0.35700
C787        C  0.50713886  0.92417551  0.02382468     0.36400
C788        C  0.61463783  0.11204699  0.02541590     0.39600
N789        N  0.32726915  0.92426379  0.00582890    -0.38400
N790        N  0.43310923  0.97600772  0.05626686    -0.40000
N791        N  0.46333950  0.94681915  0.89466629    -0.37800
N792        N  0.56506283  0.99555804  0.94437600    -0.40100
N793        N  0.52278990  0.09211153  0.98439259    -0.39900
N794        N  0.63497325  0.15006730  0.02674980    -0.37500
N795        N  0.60000357  0.94193793  0.06207060    -0.38600
N796        N  0.48450369  0.88630325  0.02407541    -0.40300
C797        C  0.14383285  0.76616309  0.00245343    -0.05200
C798        C  0.13334811  0.79465239  0.01671203     0.09000
C799        C  0.15572435  0.83986483  0.01000425    -0.02600
C800        C  0.18710662  0.85614097  0.98848712    -0.00800
C801        C  0.19625678  0.82734153  0.97346567    -0.04500
C802        C  0.17538344  0.78248868  0.98107246     0.02600
C803        C  0.09665173  0.77611528  0.03744728     0.09400
C804        C  0.14600963  0.86948079  0.02509562     0.35300
C805        C  0.18566862  0.75282703  0.96651247     0.38700
C806        C  0.10300390  0.76524395  0.06437577    -0.04800
C807        C  0.06675912  0.74101694  0.08209371     0.02300
C808        C  0.02393158  0.72809543  0.07319518    -0.04400
C809        C  0.01841633  0.74324217  0.04736630    -0.00700
C810        C  0.05447798  0.76634869  0.02937677    -0.03200
C811        C  0.14669703  0.77777281  0.07345079     0.36000
C812        C  0.97555012  0.73354998  0.03843692     0.39700
C813        C  0.07331599  0.72861177  0.10940672     0.38800
C814        C  0.04782960  0.77789390  0.00181846     0.35700
C815        C  0.12107970  0.71968213  0.00929122     0.36400
C816        C  0.21081383  0.90274217  0.98231670     0.39600
N817        N  0.07831535  0.71866695  0.13123744    -0.38400
N818        N  0.18161735  0.78788990  0.08070344    -0.40000
N819        N  0.94209377  0.72729662  0.03065562    -0.37800
N820        N  0.04263943  0.78696144  0.97977899    -0.40100
N821        N  0.13817990  0.89306487  0.03714127    -0.39900
N822        N  0.23001275  0.94012817  0.97787064    -0.37500
N823        N  0.19383069  0.72905080  0.95500427    -0.38600
N824        N  0.10280872  0.68262952  0.01481767    -0.40300
C825        C  0.31241845  0.18759711  0.50789310    -0.05200
C826        C  0.32514048  0.18656924  0.48049601     0.09000
C827        C  0.34866621  0.16518085  0.47443104    -0.02600
C828        C  0.36264539  0.14808067  0.49592067    -0.00800
C829        C  0.35334923  0.15242263  0.52395798    -0.04500
C830        C  0.32593886  0.17043715  0.52949116     0.02600
C831        C  0.31855910  0.21307630  0.45886608     0.09400
C832        C  0.35887712  0.16135313  0.44591128     0.35300
C833        C  0.31214059  0.17297937  0.55736186     0.38700
C834        C  0.35381229  0.25491578  0.45182946    -0.04800
C835        C  0.34745151  0.28279570  0.43407297     0.02300
C836        C  0.30483262  0.27014064  0.42439763    -0.04400
C837        C  0.27007898  0.22696428  0.43014956    -0.00700
C838        C  0.27706603  0.19847292  0.44711642    -0.03200
C839        C  0.39654911  0.27015220  0.46400452     0.36000
C840        C  0.22721714  0.21139668  0.41824891     0.39700
C841        C  0.38531647  0.32467500  0.42654517     0.38800
C842        C  0.24147708  0.15432588  0.45291187     0.35700
C843        C  0.28643154  0.20787723  0.51396889     0.36400
C844        C  0.38563753  0.12513546  0.48878331     0.39600
N845        N  0.41657758  0.35735641  0.42068638    -0.38400
N846        N  0.43045561  0.28221455  0.47384719    -0.40000
N847        N  0.19297101  0.19895595  0.40882159    -0.37800
N848        N  0.21312170  0.11901565  0.45749426    -0.40100
N849        N  0.36684948  0.15828197  0.42311281    -0.39900
N850        N  0.40379495  0.10666892  0.48302603    -0.37500
N851        N  0.30093082  0.17513373  0.57949609    -0.38600
N852        N  0.26558185  0.22387134  0.51873306    -0.40300
C853        C  0.69109687  0.16290290  0.59640509    -0.05200
C854        C  0.67651891  0.16759060  0.62264641     0.09000
C855        C  0.70641431  0.18324248  0.64489010    -0.02600
C856        C  0.75096197  0.19613353  0.64050369    -0.00800
C857        C  0.76583223  0.19360260  0.61380989    -0.04500
C858        C  0.73494783  0.17455620  0.59220711     0.02600
C859        C  0.62919725  0.15446341  0.62625724     0.09400
C860        C  0.69151735  0.18702122  0.67208572     0.35300
C861        C  0.74809668  0.16646217  0.56541898     0.38700
C862        C  0.59655712  0.10960351  0.62488806    -0.04800
C863        C  0.55232992  0.09705796  0.62054473     0.02300
C864        C  0.53974177  0.12949264  0.61914207    -0.04400
C865        C  0.57181680  0.17376357  0.62498376    -0.00700
C866        C  0.61649310  0.18646529  0.62736746    -0.03200
C867        C  0.60901163  0.07634377  0.62704912     0.36000
C868        C  0.55847205  0.20580900  0.62979422     0.39700
C869        C  0.52071848  0.05074174  0.61638511     0.38800
C870        C  0.64951968  0.23261316  0.63000490     0.35700
C871        C  0.66127317  0.14758874  0.57319656     0.36400
C872        C  0.78146929  0.21267025  0.66330056     0.39600
N873        N  0.49570543  0.01372953  0.61310337    -0.38400
N874        N  0.61906321  0.04994593  0.62897930    -0.40000
N875        N  0.54667294  0.23035906  0.63426139    -0.37800
N876        N  0.67591119  0.26945446  0.63209844    -0.40100
N877        N  0.67966657  0.19030657  0.69377266    -0.39900
N878        N  0.80570336  0.22527598  0.68160026    -0.37500
N879        N  0.75811363  0.15967650  0.54403469    -0.38600
N880        N  0.63795331  0.13569368  0.55445582    -0.40300
C881        C  0.33758564  0.98130202  0.71471058    -0.05200
C882        C  0.31518520  0.99524224  0.73219860     0.09000
C883        C  0.30607690  0.02765848  0.72297427    -0.02600
C884        C  0.32103887  0.04755241  0.69676372    -0.00800
C885        C  0.34474960  0.03453182  0.67930501    -0.04500
C886        C  0.35167176  0.00012908  0.68833808     0.02600
C887        C  0.30645561  0.97947974  0.76151633     0.09400
C888        C  0.28210632  0.04115056  0.74086135     0.35300
C889        C  0.37252684  0.98286603  0.67055340     0.38700
C890        C  0.34013239  0.00088954  0.78106821    -0.04800
C891        C  0.33522013  0.98357616  0.80785246     0.02300
C892        C  0.29614925  0.94468002  0.81556658    -0.04400
C893        C  0.26151071  0.92438268  0.79636039    -0.00700
C894        C  0.26695719  0.94137862  0.76923770    -0.03200
C895        C  0.38062058  0.04025261  0.77321727     0.36000
C896        C  0.22105460  0.88504567  0.80409527     0.39700
C897        C  0.37064286  0.00640573  0.82746710     0.38800
C898        C  0.23272177  0.91882298  0.74892862     0.35700
C899        C  0.34725535  0.94815837  0.72432212     0.36400
C900        C  0.31334030  0.08253732  0.68845795     0.39600
N901        N  0.39917886  0.02483610  0.84287707    -0.38400
N902        N  0.41285175  0.07153811  0.76681933    -0.40000
N903        N  0.18873566  0.85373654  0.81035575    -0.37800
N904        N  0.20551339  0.90069188  0.73264294    -0.40100
N905        N  0.26281427  0.05166909  0.75517820    -0.39900
N906        N  0.30715548  0.11047899  0.68192748    -0.37500
N907        N  0.38911101  0.96879435  0.65660727    -0.38600
N908        N  0.35517105  0.92196077  0.73209613    -0.40300
C909        C  0.17299203  0.84901306  0.49839015    -0.05200
C910        C  0.21472999  0.86350395  0.50974843     0.09000
C911        C  0.23915793  0.84449610  0.50015567    -0.02600
C912        C  0.22335587  0.81350195  0.47832253    -0.00800
C913        C  0.18257960  0.80086968  0.46562053    -0.04500
C914        C  0.15707348  0.81824529  0.47645404     0.02600
C915        C  0.23406620  0.90065367  0.53052711     0.09400
C916        C  0.28089465  0.85682127  0.51271543     0.35300
C917        C  0.11403246  0.80454539  0.46539671     0.38700
C918        C  0.24204567  0.89347224  0.55802245    -0.04800
C919        C  0.26530789  0.92944302  0.57626364     0.02300
C920        C  0.27935024  0.97312545  0.56762693    -0.04400
C921        C  0.26629833  0.97929154  0.54113798    -0.00700
C922        C  0.24554370  0.94369520  0.52240731    -0.03200
C923        C  0.22702483  0.84898076  0.56737730     0.36000
C924        C  0.27498716  0.02224226  0.53238412     0.39700
C925        C  0.27462628  0.92118767  0.60402058     0.38800
C926        C  0.23827035  0.95193376  0.49411785     0.35700
C927        C  0.14625890  0.86596867  0.50934767     0.36400
C928        C  0.25036558  0.79612547  0.46851707     0.39600
N929        N  0.28220652  0.91462721  0.62612661    -0.38400
N930        N  0.21516861  0.81346597  0.57476850    -0.40000
N931        N  0.28049100  0.05585771  0.52500876    -0.37800
N932        N  0.23257791  0.95850294  0.47155819    -0.40100
N933        N  0.31375131  0.86565684  0.52300071    -0.39900
N934        N  0.27202156  0.78235506  0.46082340    -0.37500
N935        N  0.07981224  0.79407318  0.45659673    -0.38600
N936        N  0.12497975  0.87958721  0.51797610    -0.40300
C937        C  0.51977916  0.03553035  0.51310180    -0.05200
C938        C  0.49169515  0.99313266  0.50245636     0.09000
C939        C  0.44603722  0.97345967  0.50537705    -0.02600
C940        C  0.42844595  0.99586615  0.51953904    -0.00800
C941        C  0.45647326  0.03758380  0.53133475    -0.04500
C942        C  0.50231454  0.05784098  0.52751297     0.02600
C943        C  0.51013504  0.97109905  0.48563723     0.09400
C944        C  0.41740124  0.93028317  0.49357700     0.35300
C945        C  0.53168860  0.10118406  0.53885096     0.38700
C946        C  0.52647261  0.94637532  0.49832826    -0.04800
C947        C  0.54493774  0.92670893  0.48204172     0.02300
C948        C  0.54710891  0.93202263  0.45314738    -0.04400
C949        C  0.52998407  0.95626241  0.44050730    -0.00700
C950        C  0.51194285  0.97604957  0.45678533    -0.03200
C951        C  0.52474111  0.94177243  0.52809980     0.36000
C952        C  0.52990577  0.96030066  0.41067110     0.39700
C953        C  0.56288986  0.90224770  0.49496159     0.38800
C954        C  0.49557317  0.00204085  0.44391936     0.35700
C955        C  0.56666604  0.05600221  0.50901788     0.36400
C956        C  0.38151302  0.97697012  0.52100701     0.39600
N957        N  0.57732024  0.88269466  0.50508710    -0.38400
N958        N  0.52345417  0.93821277  0.55187610    -0.40000
N959        N  0.52963420  0.96397377  0.38695130    -0.37800
N960        N  0.48256591  0.02284226  0.43377234    -0.40100
N961        N  0.39499033  0.89586077  0.48402160    -0.39900
N962        N  0.34413634  0.96261176  0.52205005    -0.37500
N963        N  0.55459982  0.13597831  0.54776224    -0.38600
N964        N  0.60394017  0.07179447  0.50551033    -0.40300
C965        C  0.74034393  0.65006329  0.95012813    -0.05200
C966        C  0.77919826  0.68561552  0.96072020     0.09000
C967        C  0.79258344  0.72867722  0.95164125    -0.02600
C968        C  0.76644298  0.73632812  0.93294650    -0.00800
C969        C  0.72595665  0.70097047  0.92340318    -0.04500
C970        C  0.71424910  0.65737381  0.93133465     0.02600
C971        C  0.80415003  0.67743188  0.98279928     0.09400
C972        C  0.83296643  0.76529126  0.96210191     0.35300
C973        C  0.67508434  0.61920014  0.92087751     0.38700
C974        C  0.83159857  0.66045990  0.97605542    -0.04800
C975        C  0.85101014  0.64830184  0.99716605     0.02300
C976        C  0.84341862  0.65329433  0.02529057    -0.04400
C977        C  0.81724620  0.67194138  0.03191447    -0.00700
C978        C  0.79734491  0.68331867  0.01082285    -0.03200
C979        C  0.83912660  0.65472350  0.94731758     0.36000
C980        C  0.80856477  0.67727251  0.06053783     0.39700
C981        C  0.87959707  0.63155265  0.98993583     0.38800
C982        C  0.76795519  0.69914391  0.01799256     0.35700
C983        C  0.72624145  0.60572149  0.95958194     0.36400
C984        C  0.78204183  0.78061884  0.92299965     0.39600
N985        N  0.90259883  0.61836035  0.98427504    -0.38400
N986        N  0.84502974  0.65004962  0.92436834    -0.40000
N987        N  0.80160482  0.68155935  0.08334498    -0.37800
N988        N  0.74427913  0.71147526  0.02371135    -0.40100
N989        N  0.86512528  0.79447507  0.97058921    -0.39900
N990        N  0.79461417  0.81590851  0.91488057    -0.37500
N991        N  0.64454435  0.58774487  0.91276811    -0.38600
N992        N  0.71501975  0.57047338  0.96724472    -0.40300
C993        C  0.44664070  0.43656402  0.99977969    -0.05200
C994        C  0.49227748  0.46546149  0.99799517     0.09000
C995        C  0.52110822  0.45480826  0.01113744    -0.02600
C996        C  0.50425185  0.41658398  0.02738632    -0.00800
C997        C  0.45866865  0.38956426  0.03084961    -0.04500
C998        C  0.42981001  0.39861731  0.01634412     0.02600
C999        C  0.51021256  0.50672402  0.98162333     0.09400
C1000       C  0.56800421  0.48358247  0.00811836     0.35300
C1001       C  0.38296789  0.36880502  0.01844186     0.38700
C1002       C  0.52173593  0.54697959  0.99473705    -0.04800
C1003       C  0.54007678  0.58623620  0.97923820     0.02300
C1004       C  0.54696757  0.58518063  0.95059808    -0.04400
C1005       C  0.53396655  0.54435500  0.93744094    -0.00700
C1006       C  0.51606957  0.50541868  0.95300058    -0.03200
C1007       C  0.51456393  0.54776896  0.02417210     0.36000
C1008       C  0.53709079  0.54168132  0.90767287     0.39700
C1009       C  0.55252639  0.62766782  0.99282035     0.38800
C1010       C  0.50330630  0.46373330  0.93957119     0.35700
C1011       C  0.41721049  0.44626604  0.98479997     0.36400
C1012       C  0.53358258  0.40513143  0.04088594     0.39600
N1013       N  0.56237918  0.66075580  0.00359651    -0.38400
N1014       N  0.50868521  0.54817932  0.04765817    -0.40000
N1015       N  0.53931065  0.53899861  0.88397139    -0.37800
N1016       N  0.49297689  0.43044086  0.92892572    -0.40100
N1017       N  0.60535150  0.50680818  0.00555797    -0.39900
N1018       N  0.55657064  0.39533894  0.05152614    -0.37500
N1019       N  0.34561016  0.34476577  0.01982476    -0.38600
N1020       N  0.39388531  0.45404707  0.97268177    -0.40300
C1021       C  0.39325816  0.56139360  0.88056808    -0.05200
C1022       C  0.38525667  0.53582431  0.85652458     0.09000
C1023       C  0.41966836  0.54620212  0.83782700    -0.02600
C1024       C  0.46243751  0.58116594  0.84365864    -0.00800
C1025       C  0.47086784  0.60619345  0.86820424    -0.04500
C1026       C  0.43562163  0.59635817  0.88641539     0.02600
C1027       C  0.34044460  0.49685739  0.85231045     0.09400
C1028       C  0.41105499  0.52033635  0.81287593     0.35300
C1029       C  0.44286724  0.62001093  0.91228019     0.38700
C1030       C  0.30714368  0.50299013  0.84146271    -0.04800
C1031       C  0.26284506  0.47148619  0.84662380     0.02300
C1032       C  0.25170082  0.43382332  0.86275297    -0.04400
C1033       C  0.28499424  0.42520339  0.87040410    -0.00700
C1034       C  0.32929518  0.45654836  0.86502557    -0.03200
C1035       C  0.31872791  0.54361840  0.82719040     0.36000
C1036       C  0.27429839  0.38586227  0.88574459     0.39700
C1037       C  0.22904138  0.48005132  0.83754775     0.38800
C1038       C  0.36371834  0.44922778  0.87477508     0.35700
C1039       C  0.35788757  0.55034420  0.90002427     0.36400
C1040       C  0.49758859  0.59114200  0.82436188     0.39600
N1041       N  0.20256504  0.48756818  0.83015522    -0.38400
N1042       N  0.32815210  0.57612769  0.81586618    -0.40000
N1043       N  0.26723440  0.35477981  0.89792975    -0.37800
N1044       N  0.39127943  0.44353209  0.88252584    -0.40100
N1045       N  0.40411597  0.49966688  0.79295026    -0.39900
N1046       N  0.52547812  0.59871859  0.80889334    -0.37500
N1047       N  0.44819474  0.63853534  0.93297455    -0.38600
N1048       N  0.32972352  0.54121461  0.91557851    -0.40300
C1049       C  0.43522569  0.80839368  0.88312571    -0.05200
C1050       C  0.46451996  0.83093652  0.86123846     0.09000
C1051       C  0.45658644  0.85823181  0.84390161    -0.02600
C1052       C  0.42063133  0.86432515  0.84912745    -0.00800
C1053       C  0.39317857  0.84442624  0.87238453    -0.04500
C1054       C  0.40050574  0.81581952  0.88912279     0.02600
C1055       C  0.50357660  0.82535570  0.85723072     0.09400
C1056       C  0.48557245  0.88016338  0.82078549     0.35300
C1057       C  0.37442922  0.79606575  0.91374599     0.38700
C1058       C  0.49798564  0.78648779  0.84504041    -0.04800
C1059       C  0.52948432  0.77382504  0.84919498     0.02300
C1060       C  0.56712999  0.80018521  0.86532264    -0.04400
C1061       C  0.57546950  0.84189277  0.87425757    -0.00700
C1062       C  0.54375702  0.85448572  0.87021564    -0.03200
C1063       C  0.45812842  0.75794259  0.82996551     0.36000
C1064       C  0.61530921  0.87040747  0.88928771     0.39700
C1065       C  0.52120390  0.73187636  0.83857334     0.38800
C1066       C  0.55118444  0.89617473  0.88087142     0.35700
C1067       C  0.44130900  0.77774215  0.89981610     0.36400
C1068       C  0.41162497  0.89075649  0.83037862     0.39600
N1069       N  0.51350614  0.69814568  0.82982953    -0.38400
N1070       N  0.42629001  0.73522513  0.81796614    -0.40000
N1071       N  0.64715200  0.89309150  0.90129290    -0.37800
N1072       N  0.55707605  0.92955815  0.88918680    -0.40100
N1073       N  0.50874433  0.89776787  0.80233704    -0.39900
N1074       N  0.40409862  0.91158323  0.81540592    -0.37500
N1075       N  0.35403875  0.78040612  0.93353882    -0.38600
N1076       N  0.44608488  0.75298668  0.91279593    -0.40300
C1077       C  0.64160572  0.86239407  0.99631889    -0.05200
C1078       C  0.67579362  0.86832118  0.01403086     0.09000
C1079       C  0.69448421  0.84148828  0.01031675    -0.02600
C1080       C  0.68008883  0.81014681  0.98858823    -0.00800
C1081       C  0.64623068  0.80466637  0.97078308    -0.04500
C1082       C  0.62635042  0.83018957  0.97521031     0.02600
C1083       C  0.69278993  0.90406348  0.03577017     0.09400
C1084       C  0.72892085  0.84659824  0.02865879     0.35300
C1085       C  0.59006293  0.82336628  0.95797262     0.38700
C1086       C  0.67221178  0.89639539  0.06182282    -0.04800
C1087       C  0.68347175  0.93181575  0.08032608     0.02300
C1088       C  0.71536672  0.97547841  0.07296345    -0.04400
C1089       C  0.73916701  0.98213345  0.04808863    -0.00700
C1090       C  0.72765221  0.94668940  0.02957017    -0.03200
C1091       C  0.63880324  0.85204653  0.06930186     0.36000
C1092       C  0.77454303  0.02552157  0.04067674     0.39700
C1093       C  0.66219333  0.92335665  0.10706471     0.38800
C1094       C  0.75075279  0.95428629  0.00353817     0.35700
C1095       C  0.62300151  0.89053518  0.99918761     0.36400
C1096       C  0.70016824  0.78358464  0.98440864     0.39600
N1097       N  0.64547262  0.91672000  0.12848597    -0.38400
N1098       N  0.61230414  0.81653430  0.07524361    -0.40000
N1099       N  0.80346662  0.05944367  0.03413005    -0.37800
N1100       N  0.76916057  0.96018586  0.98278037    -0.40100
N1101       N  0.75636727  0.85063416  0.04335499    -0.39900
N1102       N  0.71602333  0.76222595  0.98101567    -0.37500
N1103       N  0.56077257  0.81776565  0.94452245    -0.38600
N1104       N  0.60825388  0.91312854  0.00109009    -0.40300
C1105       C  0.71165032  0.73237166  0.52053345    -0.05200
C1106       C  0.69573208  0.75860397  0.53181315     0.09000
C1107       C  0.69336640  0.76131898  0.56084285    -0.02600
C1108       C  0.70577354  0.73725186  0.57832205    -0.00800
C1109       C  0.72033696  0.70982080  0.56699597    -0.04500
C1110       C  0.72325805  0.70771039  0.53790683     0.02600
C1111       C  0.68064006  0.78223120  0.51275643     0.09400
C1112       C  0.67767629  0.78856183  0.57271403     0.35300
C1113       C  0.73418315  0.67700385  0.52552249     0.38700
C1114       C  0.63561726  0.76483652  0.50747745    -0.04800
C1115       C  0.62175700  0.78344092  0.48674337     0.02300
C1116       C  0.65283734  0.81979524  0.47090028    -0.04400
C1117       C  0.69780986  0.83836436  0.47723205    -0.00700
C1118       C  0.71151500  0.81988134  0.49804810    -0.03200
C1119       C  0.60345549  0.72675651  0.52284384     0.36000
C1120       C  0.73042041  0.87681570  0.46244989     0.39700
C1121       C  0.57549062  0.76328786  0.48070252     0.38800
C1122       C  0.75770309  0.83921274  0.50410205     0.35700
C1123       C  0.71473181  0.72964724  0.49078717     0.36400
C1124       C  0.70350279  0.74070888  0.60803525     0.39600
N1125       N  0.53854988  0.74708954  0.47588274    -0.38400
N1126       N  0.57771072  0.69652825  0.53518726    -0.40000
N1127       N  0.75691700  0.90747564  0.45084299    -0.37800
N1128       N  0.79454583  0.85457165  0.50893548    -0.40100
N1129       N  0.66495991  0.81015725  0.58220546    -0.39900
N1130       N  0.70172012  0.74355491  0.63175092    -0.37500
N1131       N  0.74206123  0.65220054  0.51517878    -0.38600
N1132       N  0.71737815  0.72781035  0.46705901    -0.40300
C1133       C  0.55272131  0.47136513  0.51014294    -0.05200
C1134       C  0.53225986  0.49589384  0.50500952     0.09000
C1135       C  0.55108101  0.53941473  0.51462658    -0.02600
C1136       C  0.58914732  0.55784465  0.53078115    -0.00800
C1137       C  0.60880699  0.53261090  0.53762096    -0.04500
C1138       C  0.59084392  0.48943207  0.52642576     0.02600
C1139       C  0.49172189  0.47707265  0.48825350     0.09400
C1140       C  0.53107763  0.56533254  0.50770585     0.35300
C1141       C  0.61021143  0.46255505  0.53208434     0.38700
C1142       C  0.45027148  0.45271352  0.50097321    -0.04800
C1143       C  0.41202333  0.43920391  0.48538861     0.02300
C1144       C  0.41546101  0.45016142  0.45720117    -0.04400
C1145       C  0.45704144  0.47426670  0.44454638    -0.00700
C1146       C  0.49502660  0.48713533  0.45997769    -0.03200
C1147       C  0.44719763  0.44134114  0.52995209     0.36000
C1148       C  0.46127090  0.48650898  0.41567965     0.39700
C1149       C  0.36923629  0.41359916  0.49810530     0.38800
C1150       C  0.53771293  0.51061796  0.44678098     0.35700
C1151       C  0.53439892  0.42749068  0.49852796     0.36400
C1152       C  0.60748322  0.60290289  0.54023093     0.39600
N1153       N  0.33499454  0.39318066  0.50812595    -0.38400
N1154       N  0.44488633  0.43209711  0.55305186    -0.40000
N1155       N  0.46626550  0.49709039  0.39275871    -0.37800
N1156       N  0.57171010  0.52907280  0.43624585    -0.40100
N1157       N  0.51517809  0.58592558  0.50199358    -0.39900
N1158       N  0.62131817  0.63864315  0.54789921    -0.37500
N1159       N  0.62557063  0.44099405  0.53641720    -0.38600
N1160       N  0.51985163  0.39261211  0.48914357    -0.40300
C1161       C  0.48408199  0.31309822  0.60920632    -0.05200
C1162       C  0.50833585  0.32343006  0.63385441     0.09000
C1163       C  0.49649388  0.29030670  0.65401015    -0.02600
C1164       C  0.46402070  0.24609165  0.64816352    -0.00800
C1165       C  0.44403304  0.23485177  0.62192739    -0.04500
C1166       C  0.45234888  0.26906045  0.60316558     0.02600
C1167       C  0.54854496  0.36823058  0.63695917     0.09400
C1168       C  0.51889342  0.30157974  0.68030024     0.35300
C1169       C  0.42983542  0.25887326  0.57686265     0.38700
C1170       C  0.54551224  0.40406335  0.64712866    -0.04800
C1171       C  0.58122381  0.44766235  0.64422343     0.02300
C1172       C  0.62090519  0.45575670  0.63142403    -0.04400
C1173       C  0.62572266  0.41886799  0.62570260    -0.00700
C1174       C  0.58917392  0.37577415  0.62692212    -0.03200
C1175       C  0.50480851  0.39599902  0.65950793     0.36000
C1176       C  0.66801352  0.42450655  0.61839516     0.39700
C1177       C  0.57644611  0.48373152  0.65441057     0.38800
C1178       C  0.59288670  0.33969702  0.61561457     0.35700
C1179       C  0.49329556  0.34770289  0.58945505     0.36400
C1180       C  0.45339684  0.21178959  0.66831996     0.39600
N1181       N  0.57245878  0.51237376  0.66262496    -0.38400
N1182       N  0.47233009  0.38939815  0.66948154    -0.40000
N1183       N  0.70172200  0.42874265  0.61288590    -0.37800
N1184       N  0.59693826  0.31204119  0.60577035    -0.40100
N1185       N  0.53671035  0.31074129  0.70134270    -0.39900
N1186       N  0.44456064  0.18423335  0.68436619    -0.37500
N1187       N  0.41254730  0.25166278  0.55568874    -0.38600
N1188       N  0.50056569  0.37538467  0.57381510    -0.40300
C1189       C  0.70323403  0.64265915  0.73127200    -0.05200
C1190       C  0.71947351  0.68799324  0.73531561     0.09000
C1191       C  0.74479364  0.71801685  0.71438289    -0.02600
C1192       C  0.75135996  0.70253630  0.68883027    -0.00800
C1193       C  0.73127650  0.65661392  0.68371584    -0.04500
C1194       C  0.70858625  0.62693803  0.70559325     0.02600
C1195       C  0.70610818  0.70291736  0.76071582     0.09400
C1196       C  0.76272885  0.76476729  0.71884373     0.35300
C1197       C  0.69031018  0.57996004  0.70179006     0.38700
C1198       C  0.73351887  0.71869217  0.78405382    -0.04800
C1199       C  0.71760811  0.72574157  0.80925686     0.02300
C1200       C  0.67400448  0.71706209  0.81126748    -0.04400
C1201       C  0.64790964  0.70441266  0.78722227    -0.00700
C1202       C  0.66384873  0.69733336  0.76214598    -0.03200
C1203       C  0.77758644  0.72614676  0.78233324     0.36000
C1204       C  0.60473232  0.69917847  0.78796367     0.39700
C1205       C  0.74545032  0.73940617  0.83345183     0.38800
C1206       C  0.63632868  0.68316485  0.73777889     0.35700
C1207       C  0.67998595  0.61201968  0.75353813     0.36400
C1208       C  0.77719382  0.73406450  0.66754469     0.39600
N1209       N  0.76776523  0.75033150  0.85271038    -0.38400
N1210       N  0.81281751  0.73225837  0.78090154    -0.40000
N1211       N  0.57029846  0.69515585  0.78780070    -0.37800
N1212       N  0.61454119  0.67182205  0.71827941    -0.40100
N1213       N  0.77704588  0.80207708  0.72242977    -0.39900
N1214       N  0.79807919  0.75929026  0.65065438    -0.37500
N1215       N  0.67543287  0.54245700  0.69876128    -0.38600
N1216       N  0.66160927  0.58776807  0.77140413    -0.40300
C1217       C  0.89212911  0.45463330  0.64287222    -0.05200
C1218       C  0.86235008  0.45948141  0.62621410     0.09000
C1219       C  0.84196830  0.43025090  0.60400695    -0.02600
C1220       C  0.85231867  0.39739688  0.59776678    -0.00800
C1221       C  0.88311541  0.39270784  0.61402743    -0.04500
C1222       C  0.90279300  0.42176162  0.63678287     0.02600
C1223       C  0.85325772  0.49637095  0.63083863     0.09400
C1224       C  0.81029547  0.43437009  0.58730117     0.35300
C1225       C  0.93394800  0.41809738  0.65420374     0.38700
C1226       C  0.87615944  0.53548677  0.61522242    -0.04800
C1227       C  0.86086250  0.56549299  0.61409404     0.02300
C1228       C  0.82236632  0.55638461  0.62833270    -0.04400
C1229       C  0.80246577  0.51993514  0.64635568    -0.00700
C1230       C  0.81768581  0.48983330  0.64750636    -0.03200
C1231       C  0.91330378  0.54293979  0.59850485     0.36000
C1232       C  0.76421216  0.51173043  0.66209195     0.39700
C1233       C  0.88260538  0.60401071  0.59648231     0.38800
C1234       C  0.79466688  0.45035207  0.66412715     0.35700
C1235       C  0.91152836  0.48345440  0.66645545     0.36400
C1236       C  0.83224107  0.36995780  0.57365041     0.39600
N1237       N  0.89995585  0.63481961  0.58250274    -0.38400
N1238       N  0.94276436  0.54863764  0.58505607    -0.40000
N1239       N  0.73374930  0.50531410  0.67468624    -0.37800
N1240       N  0.77620220  0.41873851  0.67731512    -0.40100
N1241       N  0.78502100  0.43769789  0.57407768    -0.39900
N1242       N  0.81608092  0.34823471  0.55439251    -0.37500
N1243       N  0.95906536  0.41552033  0.66806202    -0.38600
N1244       N  0.92668599  0.50630079  0.68538896    -0.40300
C1245       C  0.88855099  0.68935267  0.50277830    -0.05200
C1246       C  0.89182749  0.65796111  0.48650590     0.09000
C1247       C  0.85937622  0.61305995  0.48882399    -0.02600
C1248       C  0.82545660  0.59924990  0.50861748    -0.00800
C1249       C  0.82339099  0.63050192  0.52608462    -0.04500
C1250       C  0.85405461  0.67588881  0.52199278     0.02600
C1251       C  0.93107028  0.67183349  0.46830029     0.09400
C1252       C  0.86174907  0.58095437  0.47123561     0.35300
C1253       C  0.84987119  0.70915535  0.53713120     0.38700
C1254       C  0.96573279  0.66652472  0.47765815    -0.04800
C1255       C  0.00256101  0.67905009  0.46072428     0.02300
C1256       C  0.00368730  0.69382276  0.43347154    -0.04400
C1257       C  0.97031419  0.70149178  0.42458555    -0.00700
C1258       C  0.93418892  0.69082033  0.44208634    -0.03200
C1259       C  0.96289450  0.64680245  0.50441537     0.36000
C1260       C  0.97271387  0.71949589  0.39736277     0.39700
C1261       C  0.04001819  0.67787823  0.47163943     0.38800
C1262       C  0.89960151  0.69819424  0.43291930     0.35700
C1263       C  0.92167309  0.73556002  0.50035101     0.36400
C1264       C  0.79403218  0.55266084  0.51163749     0.39600
N1265       N  0.07003957  0.67756174  0.48061929    -0.38400
N1266       N  0.96041871  0.63046405  0.52555418    -0.40000
N1267       N  0.97473028  0.73412380  0.37568179    -0.37800
N1268       N  0.87197406  0.70419069  0.42574282    -0.40100
N1269       N  0.86379863  0.55549599  0.45713804    -0.39900
N1270       N  0.76894484  0.51546055  0.51392615    -0.37500
N1271       N  0.84653863  0.73588813  0.54895486    -0.38600
N1272       N  0.94820582  0.77237448  0.49842688    -0.40300
loop_ 
_geom_bond_atom_site_label_1 
_geom_bond_atom_site_label_2 
_geom_bond_distance 
_geom_bond_site_symmetry_2 
_ccdc_geom_bond_type 
O1           C16   1.261       .  A
O1           Al9   1.901       .  S
C2           O12   1.267       .  A
C2            O3   1.267       .  A
C2         C1109   1.500       .  S
O3           Al5   1.932       .  S
O4            C6   1.255       .  A
O4           Al5   1.873       .  S
Al5          O13   1.887       .  S
Al5          O15   1.914       .  S
Al5          O14   1.789       .  S
C6           O19   1.258       .  A
C6         C1137   1.494       .  S
O7           C17   1.261       .  A
O7           Al9   1.915       .  S
O8           C21   1.272       .  A
O8          Al18   1.935       .  S
Al9          O22   1.897       .  S
Al9          O19   1.897       .  S
Al9          O14   1.784       .  S
O10          C17   1.258       .  A
O10         Al18   1.908       .  S
O11          C20   1.261       .  A
O11         Al18   1.930       .  S
O12         Al18   1.921       .  S
O13          C20   1.256       .  A
O14         Al18   1.791       .  S
O15          C16   1.262       .  A
C16        C1172   1.514       .  S
C17        C1249   1.500       .  S
C20        C1193   1.500       .  S
C21          O22   1.263       .  A
C21        C1228   1.483       .  S
O23          C38   1.259       .  A
O23         Al31   1.889       .  S
C24          O34   1.273       .  A
C24          O25   1.269       .  A
C24         C969   1.513       .  S
O25         Al27   1.936       .  S
O26          C28   1.255       .  A
O26         Al27   1.871       .  S
Al27         O35   1.901       .  S
Al27         O37   1.918       .  S
Al27         O36   1.779       .  S
C28          O41   1.262       .  A
C28        C1004   1.480       .  S
O29          C39   1.260       .  A
O29         Al31   1.915       .  S
O30          C43   1.274       .  A
O30         Al40   1.940       .  S
Al31         O44   1.914       .  S
Al31         O41   1.917       .  S
Al31         O36   1.781       .  S
O32          C39   1.261       .  A
O32         Al40   1.930       .  S
O33          C42   1.263       .  A
O33         Al40   1.940       .  S
O34         Al40   1.929       .  S
O35          C42   1.258       .  A
O36         Al40   1.783       .  S
O37          C38   1.262       .  A
C38        C1025   1.493       .  S
C39        C1081   1.492       .  S
C42        C1200   1.496       .  S
C43          O44   1.267       .  A
C43        C1060   1.490       .  S
O45          C60   1.266       .  A
O45         Al53   1.917       .  S
C46          O56   1.267       .  A
C46          O47   1.267       .  A
C46         C920   1.507   1_545  S
O47         Al49   1.924       .  S
O48          C50   1.255       .  A
O48         Al49   1.876       .  S
Al49         O57   1.885       .  S
Al49         O59   1.904       .  S
Al49         O58   1.779       .  S
C50          O63   1.257       .  A
C50         C941   1.480       .  S
O51          C61   1.264       .  A
O51         Al53   1.919       .  S
O52          C65   1.275       .  A
O52         Al62   1.943       .  S
Al53         O66   1.898       .  S
Al53         O63   1.895       .  S
Al53         O58   1.784       .  S
O54          C61   1.258       .  A
O54         Al62   1.902       .  S
O55          C64   1.261       .  A
O55         Al62   1.937       .  S
O56         Al62   1.916       .  S
O57          C64   1.254       .  A
O58         Al62   1.791       .  S
O59          C60   1.260       .  A
C60         C864   1.510       .  S
C61         C829   1.512       .  S
C64         C885   1.503       .  S
C65          O66   1.264       .  A
C65        C1165   1.492       .  S
O67          C82   1.261       .  A
O67         Al75   1.906       .  S
C68          O78   1.268       .  A
C68          O69   1.268       .  A
C68         C745   1.507   1_565  S
O69         Al71   1.938       .  S
O70          C72   1.250       .  A
O70         Al71   1.855       .  S
Al71         O79   1.880       .  S
Al71         O81   1.917       .  S
Al71         O80   1.774       .  S
C72          O85   1.258       .  A
C72         C780   1.454       .  S
O73          C83   1.258       .  A
O73         Al75   1.903       .  S
O74          C87   1.269       .  A
O74         Al84   1.920       .  S
Al75         O88   1.898       .  S
Al75         O85   1.902       .  S
Al75         O80   1.782       .  S
O76          C83   1.263       .  A
O76         Al84   1.934       .  S
O77          C86   1.265       .  A
O77         Al84   1.947       .  S
O78         Al84   1.914       .  S
O79          C86   1.255       .  A
O80         Al84   1.784       .  S
O81          C82   1.262       .  A
C82        C1053   1.501       .  S
C83         C801   1.489       .  S
C86         C892   1.490       .  S
C87          O88   1.264       .  A
C87         C717   1.473       .  S
O89         C104   1.259       .  A
O89         Al97   1.894       .  S
C90         O100   1.270       .  A
C90          O91   1.270       .  A
C90         C640   1.514   1_655  S
O91         Al93   1.936       .  S
O92          C94   1.250       .  A
O92         Al93   1.857       .  S
Al93        O101   1.885       .  S
Al93        O103   1.940       .  S
Al93        O102   1.778       .  S
C94         O107   1.263       .  A
C94         C661   1.468       .  S
O95         C105   1.262       .  A
O95         Al97   1.920       .  S
O96         C109   1.275       .  A
O96        Al106   1.935       .  S
Al97        O110   1.908       .  S
Al97        O107   1.919       .  S
Al97        O102   1.769       .  S
O98         C105   1.260       .  A
O98        Al106   1.917       .  S
O99         C108   1.265       .  A
O99        Al106   1.938       .  S
O100       Al106   1.925       .  S
O101        C108   1.256       .  A
O102       Al106   1.780       .  S
O103        C104   1.266       .  A
C104       C1221   1.511       .  S
C105        C696   1.515       .  S
C108        C605   1.489       .  S
C109        O110   1.269       .  A
C109        C857   1.495       .  S
O111        C126   1.266       .  A
O111       Al119   1.925       .  S
C112        O122   1.269       .  A
C112        O113   1.261       .  A
C112        C549   1.510   1_455  S
O113       Al115   1.913       .  S
O114        C116   1.257       .  A
O114       Al115   1.884       .  S
Al115       O123   1.896       .  S
Al115       O125   1.899       .  S
Al115       O124   1.778       .  S
C116        O129   1.260       .  A
C116        C577   1.472       .  S
O117        C127   1.265       .  A
O117       Al119   1.926       .  S
O118        C131   1.270       .  A
O118       Al128   1.935       .  S
Al119       O132   1.904       .  S
Al119       O129   1.906       .  S
Al119       O124   1.782       .  S
O120        C127   1.262       .  A
O120       Al128   1.917       .  S
O121        C130   1.265       .  A
O121       Al128   1.927       .  S
O122       Al128   1.932       .  S
O123        C130   1.259       .  A
O124       Al128   1.778       .  S
O125        C126   1.259       .  A
C126        C724   1.510       .  S
C127        C528   1.516       .  S
C130        C612   1.494       .  S
C131        O132   1.263       .  A
C131       C1032   1.484       .  S
O133        C148   1.265       .  A
O133       Al141   1.912       .  S
C134        O144   1.263       .  A
C134        O135   1.265       .  A
C134        C836   1.500       .  S
O135       Al137   1.914       .  S
O136        C138   1.268       .  A
O136       Al137   1.942       .  S
Al137       O145   1.958       .  S
Al137       O147   1.922       .  S
Al137       O146   1.780       .  S
C138        O151   1.261       .  A
C138        C633   1.499       .  S
O139        C149   1.264       .  A
O139       Al141   1.931       .  S
O140        C153   1.259       .  A
O140       Al150   1.903       .  S
Al141       O154   1.909       .  S
Al141       O151   1.905       .  S
Al141       O146   1.782       .  S
O142        C149   1.254       .  A
O142       Al150   1.864       .  S
O143        C152   1.256       .  A
O143       Al150   1.876       .  S
O144       Al150   1.925       .  S
O145        C152   1.271       .  A
O146       Al150   1.778       .  S
O147        C148   1.267       .  A
C148        C500   1.487       .  S
C149       C1144   1.468       .  S
C152        C472   1.496       .  S
C153        O154   1.262       .  A
C153        C437   1.496       .  S
O155        C170   1.255       .  A
O155       Al163   1.866       .  S
C156        O166   1.258       .  A
C156        O157   1.276       .  A
C156        C521   1.509       .  S
O157       Al159   1.976       .  S
O158        C160   1.256       .  A
O158       Al159   1.894       .  S
Al159       O167   1.912       .  S
Al159       O169   1.976       .  S
Al159       O168   1.791       .  S
C160        O173   1.260       .  A
C160        C752   1.489       .  S
O161        C171   1.256       .  A
O161       Al163   1.893       .  S
O162        C175   1.262       .  A
O162       Al172   1.897       .  S
Al163       O176   1.925       .  S
Al163       O173   1.911       .  S
Al163       O168   1.783       .  S
O164        C171   1.258       .  A
O164       Al172   1.903       .  S
O165        C174   1.255       .  A
O165       Al172   1.897       .  S
O166       Al172   1.863       .  S
O167        C174   1.259       .  A
O168       Al172   1.786       .  S
O169        C170   1.275       .  A
C170        C416   1.493       .  S
C171        C997   1.466       .  S
C174        C465   1.483       .  S
C175        O176   1.267       .  A
C175        C388   1.486       .  S
O177        C192   1.264       .  A
O177       Al185   1.896       .  S
C178        O188   1.270       .  A
C178        O179   1.271       .  A
C178        C689   1.502   1_565  S
O179       Al181   1.918       .  S
O180        C182   1.263       .  A
O180       Al181   1.933       .  S
Al181       O189   1.945       .  S
Al181       O191   1.933       .  S
Al181       O190   1.786       .  S
C182        O195   1.262       .  A
C182       C1116   1.507       .  S
O183        C193   1.258       .  A
O183       Al185   1.905       .  S
O184        C197   1.261       .  A
O184       Al194   1.909       .  S
Al185       O198   1.905       .  S
Al185       O195   1.920       .  S
Al185       O190   1.784       .  S
O186        C193   1.252       .  A
O186       Al194   1.856       .  S
O187        C196   1.255       .  A
O187       Al194   1.897       .  S
O188       Al194   1.935       .  S
O189        C196   1.262       .  A
O190       Al194   1.776       .  S
O191        C192   1.273       .  A
C192        C444   1.477       .  S
C193        C948   1.471       .  S
C196        C360   1.491       .  S
C197        O198   1.262       .  A
C197        C325   1.507       .  S
O199        C214   1.259       .  A
O199       Al207   1.865       .  S
C200        O210   1.266       .  A
C200        O201   1.275       .  A
C200       C1088   1.506   1_545  S
O201       Al203   1.953       .  S
O202        C204   1.249       .  A
O202       Al203   1.878       .  S
Al203       O211   1.904       .  S
Al203       O213   1.949       .  S
Al203       O212   1.801       .  S
C204        O217   1.254       .  A
C204        C556   1.495       .  S
O205        C215   1.256       .  A
O205       Al207   1.890       .  S
O206        C219   1.268       .  A
O206       Al216   1.925       .  S
Al207       O220   1.925       .  S
Al207       O217   1.906       .  S
Al207       O212   1.795       .  S
O208        C215   1.251       .  A
O208       Al216   1.870       .  S
O209        C218   1.246       .  A
O209       Al216   1.870       .  S
O210       Al216   1.898       .  S
O211        C218   1.252       .  A
O212       Al216   1.802       .  S
O213        C214   1.273       .  A
C214        C297   1.484       .  S
C215        C773   1.463       .  S
C218        C353   1.480       .  S
C219        O220   1.266       .  A
C219        C409   1.505       .  S
O221        C236   1.261       .  A
O221       Al229   1.875       .  S
C222        O232   1.264       .  A
C222        O223   1.276       .  A
C222        C808   1.492   1_655  S
O223       Al225   1.952       .  S
O224        C226   1.254       .  A
O224       Al225   1.892       .  S
Al225       O233   1.918       .  S
Al225       O235   1.926       .  S
Al225       O234   1.799       .  S
C226        O239   1.255       .  A
C226        C976   1.500       .  S
O227        C237   1.259       .  A
O227       Al229   1.918       .  S
O228        C241   1.264       .  A
O228       Al238   1.896       .  S
Al229       O242   1.931       .  S
Al229       O239   1.906       .  S
Al229       O234   1.796       .  S
O230        C237   1.248       .  A
O230       Al238   1.860       .  S
O231        C240   1.243       .  A
O231       Al238   1.855       .  S
O232       Al238   1.879       .  S
O233        C240   1.252       .  A
O234       Al238   1.795       .  S
O235        C236   1.269       .  A
C236        C381   1.478       .  S
C237        C584   1.484       .  S
C240        C276   1.486       .  S
C241        O242   1.268       .  A
C241        C304   1.486       .  S
O243        C258   1.256       .  A
O243       Al251   1.863       .  S
C244        O254   1.261       .  A
C244        O245   1.272       .  A
C244       C1256   1.485       .  S
O245       Al247   1.951       .  S
O246        C248   1.254       .  A
O246       Al247   1.886       .  S
Al247       O255   1.913       .  S
Al247       O257   1.947       .  S
Al247       O256   1.798       .  S
C248        O261   1.258       .  A
C248        C913   1.508       .  S
O249        C259   1.257       .  A
O249       Al251   1.893       .  S
O250        C263   1.269       .  A
O250       Al260   1.914       .  S
Al251       O264   1.917       .  S
Al251       O261   1.910       .  S
Al251       O256   1.785       .  S
O252        C259   1.252       .  A
O252       Al260   1.880       .  S
O253        C262   1.251       .  A
O253       Al260   1.876       .  S
O254       Al260   1.872       .  S
O255        C262   1.258       .  A
O256       Al260   1.790       .  S
O257        C258   1.270       .  A
C258        C332   1.482       .  S
C259        C668   1.466       .  S
C262        C269   1.495       .  S
C263        O264   1.267       .  A
C263        C493   1.492       .  S
C265        C266   1.409   1_655  A
C265        C270   1.408   1_655  A
C265        C283   1.453       .  S
C266        C271   1.501   1_455  S
C266        C267   1.413       .  A
C267        C268   1.415       .  A
C267        C272   1.450       .  S
C268        C269   1.416       .  A
C268        C284   1.450       .  S
C269        C270   1.422       .  A
C270        C273   1.453   1_455  S
C271        C274   1.413       .  A
C271        C278   1.412       .  A
C272        N289   1.157       .  T
C273        N291   1.158       .  T
C274        C275   1.416       .  A
C274        C279   1.449       .  S
C275        C276   1.413       .  A
C275        C281   1.449       .  S
C276        C277   1.415       .  A
C277        C278   1.406       .  A
C277        C280   1.452       .  S
C278        C282   1.453       .  S
C279        N286   1.157       .  T
C280        N287   1.157       .  T
C281        N285   1.157       .  T
C282        N288   1.157       .  T
C283        N292   1.157       .  T
C284        N290   1.157       .  T
C293        C294   1.411       .  A
C293        C298   1.408       .  A
C293        C311   1.453       .  S
C294        C299   1.502       .  S
C294        C295   1.414       .  A
C295        C296   1.418       .  A
C295        C300   1.448       .  S
C296        C297   1.411       .  A
C296        C312   1.448       .  S
C297        C298   1.415       .  A
C298        C301   1.452       .  S
C299        C302   1.413       .  A
C299        C306   1.412       .  A
C300        N317   1.157       .  T
C301        N319   1.157       .  T
C302        C303   1.412       .  A
C302        C307   1.450       .  S
C303        C304   1.410       .  A
C303        C309   1.449       .  S
C304        C305   1.415       .  A
C305        C306   1.413       .  A
C305        C308   1.451       .  S
C306        C310   1.450       .  S
C307        N314   1.157       .  T
C308        N315   1.157       .  T
C309        N313   1.157       .  T
C310        N316   1.157       .  T
C311        N320   1.157       .  T
C312        N318   1.157       .  T
C321        C322   1.408       .  A
C321        C326   1.417       .  A
C321        C339   1.450       .  S
C322        C327   1.502       .  S
C322        C323   1.409       .  A
C323        C324   1.411       .  A
C323        C328   1.453       .  S
C324        C325   1.423       .  A
C324        C340   1.450       .  S
C325        C326   1.424       .  A
C326        C329   1.451       .  S
C327        C330   1.412       .  A
C327        C334   1.413       .  A
C328        N345   1.157       .  T
C329        N347   1.158       .  T
C330        C331   1.413       .  A
C330        C335   1.449       .  S
C331        C332   1.412       .  A
C331        C337   1.450       .  S
C332        C333   1.412       .  A
C333        C334   1.413       .  A
C333        C336   1.451       .  S
C334        C338   1.451       .  S
C335        N342   1.157       .  T
C336        N343   1.157       .  T
C337        N341   1.157       .  T
C338        N344   1.157       .  T
C339        N348   1.157       .  T
C340        N346   1.157       .  T
C349        C350   1.413       .  A
C349        C354   1.412       .  A
C349        C367   1.450       .  S
C350        C355   1.501   1_545  S
C350        C351   1.413       .  A
C351        C352   1.412       .  A
C351        C356   1.450   1_545  S
C352        C353   1.412       .  A
C352        C368   1.451       .  S
C353        C354   1.411       .  A
C354        C357   1.451       .  S
C355        C358   1.411       .  A
C355        C362   1.410   1_565  A
C356        N373   1.157       .  T
C357        N375   1.157       .  T
C358        C359   1.412       .  A
C358        C363   1.451       .  S
C359        C360   1.412       .  A
C359        C365   1.446       .  S
C360        C361   1.417       .  A
C361        C362   1.415   1_565  A
C361        C364   1.449   1_565  S
C362        C366   1.450       .  S
C363        N370   1.157       .  T
C364        N371   1.157       .  T
C365        N369   1.156       .  T
C366        N372   1.157       .  T
C367        N376   1.157       .  T
C368        N374   1.157       .  T
C377        C378   1.414       .  A
C377        C382   1.416       .  A
C377        C395   1.448       .  S
C378        C383   1.501       .  S
C378        C379   1.412       .  A
C379        C380   1.406       .  A
C379        C384   1.449       .  S
C380        C381   1.411       .  A
C380        C396   1.453       .  S
C381        C382   1.411       .  A
C382        C385   1.450       .  S
C383        C386   1.412       .  A
C383        C390   1.413       .  A
C384        N401   1.156       .  T
C385        N403   1.157       .  T
C386        C387   1.413       .  A
C386        C391   1.450       .  S
C387        C388   1.415       .  A
C387        C393   1.450       .  S
C388        C389   1.411       .  A
C389        C390   1.410       .  A
C389        C392   1.450       .  S
C390        C394   1.449       .  S
C391        N398   1.157       .  T
C392        N399   1.156       .  T
C393        N397   1.157       .  T
C394        N400   1.157       .  T
C395        N404   1.157       .  T
C396        N402   1.157       .  T
C405        C406   1.413       .  A
C405        C410   1.420       .  A
C405        C423   1.450       .  S
C406        C411   1.513       .  S
C406        C407   1.413       .  A
C407        C408   1.416       .  A
C407        C412   1.449       .  S
C408        C409   1.417       .  A
C408        C424   1.452       .  S
C409        C410   1.419       .  A
C410        C413   1.449       .  S
C411        C414   1.416       .  A
C411        C418   1.412       .  A
C412        N429   1.157       .  T
C413        N431   1.157       .  T
C414        C415   1.422       .  A
C414        C419   1.448       .  S
C415        C416   1.413       .  A
C415        C421   1.450       .  S
C416        C417   1.415       .  A
C417        C418   1.414       .  A
C417        C420   1.450       .  S
C418        C422   1.452       .  S
C419        N426   1.157       .  T
C420        N427   1.157       .  T
C421        N425   1.157       .  T
C422        N428   1.157       .  T
C423        N432   1.157       .  T
C424        N430   1.157       .  T
C433        C434   1.406       .  A
C433        C438   1.413       .  A
C433        C451   1.450       .  S
C434        C439   1.496       .  S
C434        C435   1.410       .  A
C435        C436   1.410       .  A
C435        C440   1.452       .  S
C436        C437   1.419       .  A
C436        C452   1.452       .  S
C437        C438   1.422       .  A
C438        C441   1.451       .  S
C439        C442   1.408       .  A
C439        C446   1.412       .  A
C440        N457   1.157       .  T
C441        N459   1.157       .  T
C442        C443   1.410       .  A
C442        C447   1.451       .  S
C443        C444   1.414       .  A
C443        C449   1.449       .  S
C444        C445   1.411       .  A
C445        C446   1.412       .  A
C445        C448   1.451       .  S
C446        C450   1.450       .  S
C447        N454   1.157       .  T
C448        N455   1.157       .  T
C449        N453   1.156       .  T
C450        N456   1.157       .  T
C451        N460   1.157       .  T
C452        N458   1.158       .  T
C461        C462   1.415       .  A
C461        C466   1.413       .  A
C461        C479   1.451       .  S
C462        C467   1.505       .  S
C462        C463   1.413       .  A
C463        C464   1.413       .  A
C463        C468   1.450       .  S
C464        C465   1.412       .  A
C464        C480   1.450       .  S
C465        C466   1.412       .  A
C466        C469   1.451       .  S
C467        C470   1.412       .  A
C467        C474   1.412       .  A
C468        N485   1.157       .  T
C469        N487   1.157       .  T
C470        C471   1.412       .  A
C470        C475   1.452       .  S
C471        C472   1.418       .  A
C471        C477   1.451       .  S
C472        C473   1.417       .  A
C473        C474   1.415       .  A
C473        C476   1.450       .  S
C474        C478   1.450       .  S
C475        N482   1.157       .  T
C476        N483   1.157       .  T
C477        N481   1.157       .  T
C478        N484   1.157       .  T
C479        N488   1.157       .  T
C480        N486   1.157       .  T
C489        C490   1.411       .  A
C489        C494   1.414       .  A
C489        C507   1.451       .  S
C490        C495   1.502       .  S
C490        C491   1.412       .  A
C491        C492   1.410       .  A
C491        C496   1.452       .  S
C492        C493   1.416       .  A
C492        C508   1.451       .  S
C493        C494   1.419       .  A
C494        C497   1.451       .  S
C495        C498   1.413       .  A
C495        C502   1.413       .  A
C496        N513   1.157       .  T
C497        N515   1.157       .  T
C498        C499   1.415       .  A
C498        C503   1.449       .  S
C499        C500   1.411       .  A
C499        C505   1.446       .  S
C500        C501   1.411       .  A
C501        C502   1.408       .  A
C501        C504   1.449       .  S
C502        C506   1.450       .  S
C503        N510   1.157       .  T
C504        N511   1.157       .  T
C505        N509   1.156       .  T
C506        N512   1.157       .  T
C507        N516   1.157       .  T
C508        N514   1.157       .  T
C517        C518   1.419       .  A
C517        C522   1.422       .  A
C517        C535   1.450       .  S
C518        C523   1.518       .  S
C518        C519   1.413       .  A
C519        C520   1.411       .  A
C519        C524   1.452       .  S
C520        C521   1.422       .  A
C520        C536   1.453       .  S
C521        C522   1.417       .  A
C522        C525   1.449       .  S
C523        C526   1.416       .  A
C523        C530   1.413   1_554  A
C524        N541   1.157       .  T
C525        N543   1.158       .  T
C526        C527   1.420   1_554  A
C526        C531   1.451       .  S
C527        C528   1.421       .  A
C527        C533   1.450   1_556  S
C528        C529   1.424       .  A
C529        C530   1.415       .  A
C529        C532   1.450       .  S
C530        C534   1.452       .  S
C531        N538   1.157       .  T
C532        N539   1.157       .  T
C533        N537   1.158       .  T
C534        N540   1.158       .  T
C535        N544   1.157       .  T
C536        N542   1.157       .  T
C545        C546   1.407       .  A
C545        C550   1.412       .  A
C545        C563   1.454       .  S
C546        C551   1.505       .  S
C546        C547   1.412       .  A
C547        C548   1.418       .  A
C547        C552   1.450       .  S
C548        C549   1.420       .  A
C548        C564   1.450   1_655  S
C549        C550   1.429       .  A
C550        C553   1.452       .  S
C551        C554   1.414       .  A
C551        C558   1.410   1_556  A
C552        N569   1.157       .  T
C553        N571   1.158       .  T
C554        C555   1.416       .  A
C554        C559   1.449       .  S
C555        C556   1.414   1_556  A
C555        C561   1.450       .  S
C556        C557   1.419       .  A
C557        C558   1.411       .  A
C557        C560   1.451       .  S
C558        C562   1.452       .  S
C559        N566   1.157       .  T
C560        N567   1.158       .  T
C561        N565   1.157       .  T
C562        N568   1.157       .  T
C563        N572   1.157       .  T
C564        N570   1.157       .  T
C573        C574   1.412       .  A
C573        C578   1.409       .  A
C573        C591   1.449   1_456  S
C574        C579   1.486   1_556  S
C574        C575   1.409       .  A
C575        C576   1.401       .  A
C575        C580   1.454       .  S
C576        C577   1.413       .  A
C576        C592   1.448       .  S
C577        C578   1.411       .  A
C578        C581   1.451       .  S
C579        C582   1.406       .  A
C579        C586   1.411   1_455  A
C580        N597   1.157       .  T
C581        N599   1.157       .  T
C582        C583   1.400       .  A
C582        C587   1.454       .  S
C583        C584   1.422   1_455  A
C583        C589   1.454       .  S
C584        C585   1.415       .  A
C585        C586   1.410       .  A
C585        C588   1.450       .  S
C586        C590   1.451   1_554  S
C587        N594   1.157       .  T
C588        N595   1.157       .  T
C589        N593   1.158       .  T
C590        N596   1.157       .  T
C591        N600   1.157       .  T
C592        N598   1.156       .  T
C601        C602   1.411       .  A
C601        C606   1.411       .  A
C601        C619   1.451       .  S
C602        C607   1.499   1_655  S
C602        C603   1.410       .  A
C603        C604   1.412       .  A
C603        C608   1.451   1_655  S
C604        C605   1.418       .  A
C604        C620   1.451       .  S
C605        C606   1.415       .  A
C606        C609   1.451       .  S
C607        C610   1.409       .  A
C607        C614   1.411       .  A
C608        N625   1.157       .  T
C609        N627   1.157       .  T
C610        C611   1.412       .  A
C610        C615   1.451   1_455  S
C611        C612   1.421       .  A
C611        C617   1.452       .  S
C612        C613   1.416       .  A
C613        C614   1.412       .  A
C613        C616   1.449       .  S
C614        C618   1.452       .  S
C615        N622   1.157       .  T
C616        N623   1.157       .  T
C617        N621   1.157       .  T
C618        N624   1.157       .  T
C619        N628   1.157       .  T
C620        N626   1.158       .  T
C629        C630   1.415       .  A
C629        C634   1.418       .  A
C629        C647   1.451       .  S
C630        C635   1.514       .  S
C630        C631   1.414       .  A
C631        C632   1.416       .  A
C631        C636   1.450       .  S
C632        C633   1.413       .  A
C632        C648   1.448       .  S
C633        C634   1.417       .  A
C634        C637   1.451       .  S
C635        C638   1.411       .  A
C635        C642   1.413       .  A
C636        N653   1.157       .  T
C637        N655   1.158       .  T
C638        C639   1.415       .  A
C638        C643   1.453       .  S
C639        C640   1.422       .  A
C639        C645   1.446   1_455  S
C640        C641   1.422       .  A
C641        C642   1.421       .  A
C641        C644   1.450       .  S
C642        C646   1.450       .  S
C643        N650   1.157       .  T
C644        N651   1.157       .  T
C645        N649   1.155       .  T
C646        N652   1.157       .  T
C647        N656   1.157       .  T
C648        N654   1.156       .  T
C657        C658   1.410       .  A
C657        C662   1.406   1_455  A
C657        C675   1.450       .  S
C658        C663   1.479       .  S
C658        C659   1.406       .  A
C659        C660   1.400       .  A
C659        C664   1.453       .  S
C660        C661   1.417   1_455  A
C660        C676   1.453       .  S
C661        C662   1.408       .  A
C662        C665   1.449       .  S
C663        C666   1.409       .  A
C663        C670   1.408       .  A
C664        N681   1.157       .  T
C665        N683   1.157       .  T
C666        C667   1.401       .  A
C666        C671   1.453   1_455  S
C667        C668   1.413       .  A
C667        C673   1.452       .  S
C668        C669   1.414       .  A
C669        C670   1.405       .  A
C669        C672   1.452       .  S
C670        C674   1.451       .  S
C671        N678   1.157       .  T
C672        N679   1.157       .  T
C673        N677   1.157   1_455  T
C674        N680   1.157       .  T
C675        N684   1.157       .  T
C676        N682   1.157       .  T
C685        C686   1.409       .  A
C685        C690   1.410       .  A
C685        C703   1.454       .  S
C686        C691   1.507       .  S
C686        C687   1.413       .  A
C687        C688   1.418       .  A
C687        C692   1.450       .  S
C688        C689   1.417       .  A
C688        C704   1.450   1_545  S
C689        C690   1.422       .  A
C690        C693   1.449       .  S
C691        C694   1.408       .  A
C691        C698   1.412       .  A
C692        N709   1.157       .  T
C693        N711   1.157       .  T
C694        C695   1.413       .  A
C694        C699   1.452       .  S
C695        C696   1.429       .  A
C695        C701   1.452       .  S
C696        C697   1.424       .  A
C697        C698   1.415       .  A
C697        C700   1.450       .  S
C698        C702   1.452       .  S
C699        N706   1.157       .  T
C700        N707   1.158       .  T
C701        N705   1.158       .  T
C702        N708   1.157       .  T
C703        N712   1.157       .  T
C704        N710   1.158       .  T
C713        C714   1.412       .  A
C713        C718   1.412       .  A
C713        C731   1.449       .  S
C714        C719   1.501       .  S
C714        C715   1.414       .  A
C715        C716   1.409       .  A
C715        C720   1.450       .  S
C716        C717   1.408       .  A
C716        C732   1.451       .  S
C717        C718   1.412       .  A
C718        C721   1.451       .  S
C719        C722   1.412       .  A
C719        C726   1.406       .  A
C720        N737   1.157       .  T
C721        N739   1.157       .  T
C722        C723   1.414       .  A
C722        C727   1.453       .  S
C723        C724   1.421       .  A
C723        C729   1.450       .  S
C724        C725   1.427       .  A
C725        C726   1.412       .  A
C725        C728   1.452       .  S
C726        C730   1.452       .  S
C727        N734   1.157       .  T
C728        N735   1.158       .  T
C729        N733   1.157       .  T
C730        N736   1.157       .  T
C731        N740   1.157       .  T
C732        N738   1.157       .  T
C741        C742   1.409       .  A
C741        C746   1.413       .  A
C741        C759   1.454       .  S
C742        C747   1.505       .  S
C742        C743   1.411       .  A
C743        C744   1.417       .  A
C743        C748   1.450       .  S
C744        C745   1.420       .  A
C744        C760   1.450   1_545  S
C745        C746   1.425       .  A
C746        C749   1.451       .  S
C747        C750   1.414       .  A
C747        C754   1.413   1_556  A
C748        N765   1.157       .  T
C749        N767   1.158       .  T
C750        C751   1.413   1_556  A
C750        C755   1.450       .  S
C751        C752   1.413       .  A
C751        C757   1.451   1_554  S
C752        C753   1.415       .  A
C753        C754   1.413       .  A
C753        C756   1.451       .  S
C754        C758   1.451       .  S
C755        N762   1.157       .  T
C756        N763   1.157       .  T
C757        N761   1.157       .  T
C758        N764   1.157       .  T
C759        N768   1.157       .  T
C760        N766   1.157       .  T
C769        C770   1.405       .  A
C769        C774   1.401       .  A
C769        C787   1.452       .  S
C770        C775   1.472   1_554  S
C770        C771   1.408   1_565  A
C771        C772   1.402       .  A
C771        C776   1.452   1_554  S
C772        C773   1.413       .  A
C772        C788   1.452       .  S
C773        C774   1.414   1_545  A
C774        C777   1.452       .  S
C775        C778   1.410   1_556  A
C775        C782   1.405       .  A
C776        N793   1.157       .  T
C777        N795   1.157       .  T
C778        C779   1.405   1_554  A
C778        C783   1.450       .  S
C779        C780   1.407       .  A
C779        C785   1.451       .  S
C780        C781   1.411       .  A
C781        C782   1.396       .  A
C781        C784   1.452       .  S
C782        C786   1.454       .  S
C783        N790   1.157       .  T
C784        N791   1.157       .  T
C785        N789   1.157   1_556  T
C786        N792   1.157       .  T
C787        N796   1.157       .  T
C788        N794   1.157       .  T
C797        C798   1.413       .  A
C797        C802   1.413   1_554  A
C797        C815   1.451       .  S
C798        C803   1.504       .  S
C798        C799   1.412       .  A
C799        C800   1.415   1_554  A
C799        C804   1.450       .  S
C800        C801   1.412       .  A
C800        C816   1.447       .  S
C801        C802   1.413       .  A
C802        C805   1.451       .  S
C803        C806   1.411       .  A
C803        C810   1.411       .  A
C804        N821   1.157       .  T
C805        N823   1.157       .  T
C806        C807   1.414       .  A
C806        C811   1.449       .  S
C807        C808   1.415       .  A
C807        C813   1.451       .  S
C808        C809   1.414       .  A
C809        C810   1.413       .  A
C809        C812   1.447   1_455  S
C810        C814   1.451       .  S
C811        N818   1.157       .  T
C812        N819   1.156       .  T
C813        N817   1.157       .  T
C814        N820   1.157   1_554  T
C815        N824   1.157       .  T
C816        N822   1.156       .  T
C825        C826   1.406       .  A
C825        C830   1.412       .  A
C825        C843   1.454       .  S
C826        C831   1.501       .  S
C826        C827   1.409       .  A
C827        C828   1.416       .  A
C827        C832   1.450       .  S
C828        C829   1.423       .  A
C828        C844   1.451       .  S
C829        C830   1.430       .  A
C830        C833   1.452       .  S
C831        C834   1.408       .  A
C831        C838   1.411       .  A
C832        N849   1.157       .  T
C833        N851   1.158       .  T
C834        C835   1.410       .  A
C834        C839   1.454       .  S
C835        C836   1.423       .  A
C835        C841   1.450       .  S
C836        C837   1.418       .  A
C837        C838   1.416       .  A
C837        C840   1.450       .  S
C838        C842   1.449       .  S
C839        N846   1.157       .  T
C840        N847   1.157       .  T
C841        N845   1.158       .  T
C842        N848   1.157       .  T
C843        N852   1.157       .  T
C844        N850   1.157       .  T
C853        C854   1.411       .  A
C853        C858   1.407       .  A
C853        C871   1.449       .  S
C854        C859   1.507       .  S
C854        C855   1.415       .  A
C855        C856   1.421       .  A
C855        C860   1.448       .  S
C856        C857   1.414       .  A
C856        C872   1.448       .  S
C857        C858   1.416       .  A
C858        C861   1.453       .  S
C859        C862   1.410       .  A
C859        C866   1.412       .  A
C860        N877   1.157       .  T
C861        N879   1.157       .  T
C862        C863   1.414       .  A
C862        C867   1.452       .  S
C863        C864   1.425       .  A
C863        C869   1.451       .  S
C864        C865   1.417       .  A
C865        C866   1.416       .  A
C865        C868   1.447       .  S
C866        C870   1.449       .  S
C867        N874   1.157       .  T
C868        N875   1.156       .  T
C869        N873   1.158       .  T
C870        N876   1.157       .  T
C871        N880   1.156       .  T
C872        N878   1.157       .  T
C881        C882   1.407       .  A
C881        C886   1.409   1_565  A
C881        C899   1.453       .  S
C882        C887   1.499       .  S
C882        C883   1.410   1_565  A
C883        C884   1.417       .  A
C883        C888   1.450       .  S
C884        C885   1.420       .  A
C884        C900   1.450       .  S
C885        C886   1.424       .  A
C886        C889   1.452   1_545  S
C887        C890   1.408   1_565  A
C887        C894   1.413       .  A
C888        N905   1.157       .  T
C889        N907   1.157       .  T
C890        C891   1.408   1_545  A
C890        C895   1.452       .  S
C891        C892   1.418       .  A
C891        C897   1.452   1_565  S
C892        C893   1.414       .  A
C893        C894   1.417       .  A
C893        C896   1.450       .  S
C894        C898   1.449       .  S
C895        N902   1.157       .  T
C896        N903   1.157       .  T
C897        N901   1.157       .  T
C898        N904   1.157       .  T
C899        N908   1.157       .  T
C900        N906   1.158       .  T
C909        C910   1.412       .  A
C909        C914   1.415       .  A
C909        C927   1.452       .  S
C910        C915   1.512       .  S
C910        C911   1.414       .  A
C911        C912   1.415       .  A
C911        C916   1.450       .  S
C912        C913   1.422       .  A
C912        C928   1.452       .  S
C913        C914   1.423       .  A
C914        C917   1.452       .  S
C915        C918   1.413       .  A
C915        C922   1.413       .  A
C916        N933   1.157       .  T
C917        N935   1.158       .  T
C918        C919   1.417       .  A
C918        C923   1.450       .  S
C919        C920   1.421       .  A
C919        C925   1.451       .  S
C920        C921   1.420       .  A
C921        C922   1.415       .  A
C921        C924   1.448   1_565  S
C922        C926   1.453       .  S
C923        N930   1.157       .  T
C924        N931   1.156       .  T
C925        N929   1.157       .  T
C926        N932   1.157       .  T
C927        N936   1.157       .  T
C928        N934   1.158       .  T
C937        C938   1.407   1_545  A
C937        C942   1.406       .  A
C937        C955   1.451       .  S
C938        C943   1.484       .  S
C938        C939   1.408       .  A
C939        C940   1.406       .  A
C939        C944   1.451       .  S
C940        C941   1.412   1_565  A
C940        C956   1.447       .  S
C941        C942   1.417       .  A
C942        C945   1.451       .  S
C943        C946   1.411       .  A
C943        C950   1.406       .  A
C944        N961   1.157       .  T
C945        N963   1.157       .  T
C946        C947   1.409       .  A
C946        C951   1.449       .  S
C947        C948   1.409       .  A
C947        C953   1.451       .  S
C948        C949   1.417       .  A
C949        C950   1.401       .  A
C949        C952   1.453       .  S
C950        C954   1.453   1_565  S
C951        N958   1.157       .  T
C952        N959   1.157       .  T
C953        N957   1.157       .  T
C954        N960   1.157       .  T
C955        N964   1.157       .  T
C956        N962   1.156       .  T
C965        C966   1.408       .  A
C965        C970   1.415       .  A
C965        C983   1.453       .  S
C966        C971   1.510       .  S
C966        C967   1.412       .  A
C967        C968   1.419       .  A
C967        C972   1.449       .  S
C968        C969   1.420       .  A
C968        C984   1.450       .  S
C969        C970   1.427       .  A
C970        C973   1.450       .  S
C971        C974   1.414       .  A
C971        C978   1.411   1_556  A
C972        N989   1.157       .  T
C973        N991   1.157       .  T
C974        C975   1.418       .  A
C974        C979   1.449       .  S
C975        C976   1.416   1_556  A
C975        C981   1.450       .  S
C976        C977   1.419       .  A
C977        C978   1.414       .  A
C977        C980   1.452       .  S
C978        C982   1.451       .  S
C979        N986   1.157       .  T
C980        N987   1.157       .  T
C981        N985   1.158       .  T
C982        N988   1.157       .  T
C983        N992   1.157       .  T
C984        N990   1.157       .  T
C993        C994   1.411       .  A
C993        C998   1.408   1_556  A
C993       C1011   1.450       .  S
C994        C999   1.488       .  S
C994        C995   1.410   1_556  A
C995        C996   1.406       .  A
C995       C1000   1.451       .  S
C996        C997   1.409       .  A
C996       C1012   1.451       .  S
C997        C998   1.408       .  A
C998       C1001   1.450       .  S
C999       C1002   1.412       .  A
C999       C1006   1.405       .  A
C1000      N1017   1.157       .  T
C1001      N1019   1.157       .  T
C1002      C1003   1.411       .  A
C1002      C1007   1.450   1_556  S
C1003      C1004   1.412       .  A
C1003      C1009   1.450       .  S
C1004      C1005   1.419       .  A
C1005      C1006   1.405       .  A
C1005      C1008   1.452       .  S
C1006      C1010   1.452       .  S
C1007      N1014   1.157       .  T
C1008      N1015   1.157       .  T
C1009      N1013   1.157   1_556  T
C1010      N1016   1.157       .  T
C1011      N1020   1.157       .  T
C1012      N1018   1.157       .  T
C1021      C1022   1.409       .  A
C1021      C1026   1.407       .  A
C1021      C1039   1.453       .  S
C1022      C1027   1.497       .  S
C1022      C1023   1.409       .  A
C1023      C1024   1.416       .  A
C1023      C1028   1.449       .  S
C1024      C1025   1.418       .  A
C1024      C1040   1.449       .  S
C1025      C1026   1.420       .  A
C1026      C1029   1.453       .  S
C1027      C1030   1.408       .  A
C1027      C1034   1.410       .  A
C1028      N1045   1.157       .  T
C1029      N1047   1.157       .  T
C1030      C1031   1.412       .  A
C1030      C1035   1.451       .  S
C1031      C1032   1.414       .  A
C1031      C1037   1.447       .  S
C1032      C1033   1.412       .  A
C1033      C1034   1.412       .  A
C1033      C1036   1.445       .  S
C1034      C1038   1.451       .  S
C1035      N1042   1.157       .  T
C1036      N1043   1.156       .  T
C1037      N1041   1.156       .  T
C1038      N1044   1.157       .  T
C1039      N1048   1.157       .  T
C1040      N1046   1.157       .  T
C1049      C1050   1.412       .  A
C1049      C1054   1.412       .  A
C1049      C1067   1.453       .  S
C1050      C1055   1.507       .  S
C1050      C1051   1.411       .  A
C1051      C1052   1.418       .  A
C1051      C1056   1.449       .  S
C1052      C1053   1.419       .  A
C1052      C1068   1.451       .  S
C1053      C1054   1.419       .  A
C1054      C1057   1.451       .  S
C1055      C1058   1.409       .  A
C1055      C1062   1.414       .  A
C1056      N1073   1.157       .  T
C1057      N1075   1.157       .  T
C1058      C1059   1.413       .  A
C1058      C1063   1.451       .  S
C1059      C1060   1.415       .  A
C1059      C1065   1.447       .  S
C1060      C1061   1.412       .  A
C1061      C1062   1.418       .  A
C1061      C1064   1.449       .  S
C1062      C1066   1.449       .  S
C1063      N1070   1.157       .  T
C1064      N1071   1.157       .  T
C1065      N1069   1.156       .  T
C1066      N1072   1.157       .  T
C1067      N1076   1.157       .  T
C1068      N1074   1.157       .  T
C1077      C1078   1.414   1_556  A
C1077      C1082   1.415       .  A
C1077      C1095   1.450       .  S
C1078      C1083   1.512       .  S
C1078      C1079   1.415       .  A
C1079      C1080   1.419   1_554  A
C1079      C1084   1.449       .  S
C1080      C1081   1.413       .  A
C1080      C1096   1.449       .  S
C1081      C1082   1.412       .  A
C1082      C1085   1.451       .  S
C1083      C1086   1.412       .  A
C1083      C1090   1.411       .  A
C1084      N1101   1.157       .  T
C1085      N1103   1.157       .  T
C1086      C1087   1.419       .  A
C1086      C1091   1.449       .  S
C1087      C1088   1.417       .  A
C1087      C1093   1.450       .  S
C1088      C1089   1.419       .  A
C1089      C1090   1.418       .  A
C1089      C1092   1.447   1_565  S
C1090      C1094   1.451       .  S
C1091      N1098   1.157       .  T
C1092      N1099   1.157       .  T
C1093      N1097   1.157       .  T
C1094      N1100   1.157   1_554  T
C1095      N1104   1.157   1_556  T
C1096      N1102   1.157       .  T
C1105      C1106   1.413       .  A
C1105      C1110   1.415       .  A
C1105      C1123   1.451       .  S
C1106      C1111   1.514       .  S
C1106      C1107   1.414       .  A
C1107      C1108   1.420       .  A
C1107      C1112   1.449       .  S
C1108      C1109   1.416       .  A
C1108      C1124   1.450       .  S
C1109      C1110   1.417       .  A
C1110      C1113   1.450       .  S
C1111      C1114   1.414       .  A
C1111      C1118   1.412       .  A
C1112      N1129   1.157       .  T
C1113      N1131   1.157       .  T
C1114      C1115   1.420       .  A
C1114      C1119   1.450       .  S
C1115      C1116   1.418       .  A
C1115      C1121   1.450       .  S
C1116      C1117   1.418       .  A
C1117      C1118   1.417       .  A
C1117      C1120   1.448       .  S
C1118      C1122   1.451       .  S
C1119      N1126   1.157       .  T
C1120      N1127   1.156       .  T
C1121      N1125   1.158       .  T
C1122      N1128   1.157       .  T
C1123      N1132   1.157       .  T
C1124      N1130   1.157       .  T
C1133      C1134   1.406       .  A
C1133      C1138   1.410       .  A
C1133      C1151   1.452       .  S
C1134      C1139   1.485       .  S
C1134      C1135   1.405       .  A
C1135      C1136   1.405       .  A
C1135      C1140   1.453       .  S
C1136      C1137   1.421       .  A
C1136      C1152   1.451       .  S
C1137      C1138   1.425       .  A
C1138      C1141   1.452       .  S
C1139      C1142   1.412       .  A
C1139      C1146   1.405       .  A
C1140      N1157   1.157       .  T
C1141      N1159   1.158       .  T
C1142      C1143   1.410       .  A
C1142      C1147   1.449       .  S
C1143      C1144   1.408       .  A
C1143      C1149   1.450       .  S
C1144      C1145   1.413       .  A
C1145      C1146   1.402       .  A
C1145      C1148   1.449       .  S
C1146      C1150   1.453       .  S
C1147      N1154   1.157       .  T
C1148      N1155   1.156       .  T
C1149      N1153   1.157       .  T
C1150      N1156   1.157       .  T
C1151      N1160   1.157       .  T
C1152      N1158   1.156       .  T
C1161      C1162   1.409       .  A
C1161      C1166   1.410       .  A
C1161      C1179   1.453       .  S
C1162      C1167   1.505       .  S
C1162      C1163   1.414       .  A
C1163      C1164   1.419       .  A
C1163      C1168   1.448       .  S
C1164      C1165   1.412       .  A
C1164      C1180   1.449       .  S
C1165      C1166   1.418       .  A
C1166      C1169   1.451       .  S
C1167      C1170   1.408       .  A
C1167      C1174   1.411       .  A
C1168      N1185   1.157       .  T
C1169      N1187   1.157       .  T
C1170      C1171   1.418       .  A
C1170      C1175   1.450       .  S
C1171      C1172   1.426       .  A
C1171      C1177   1.450       .  S
C1172      C1173   1.421       .  A
C1173      C1174   1.412       .  A
C1173      C1176   1.452       .  S
C1174      C1178   1.449       .  S
C1175      N1182   1.157       .  T
C1176      N1183   1.158       .  T
C1177      N1181   1.158       .  T
C1178      N1184   1.157       .  T
C1179      N1188   1.158       .  T
C1180      N1186   1.157       .  T
C1189      C1190   1.410       .  A
C1189      C1194   1.411       .  A
C1189      C1207   1.451       .  S
C1190      C1195   1.504       .  S
C1190      C1191   1.410       .  A
C1191      C1192   1.417       .  A
C1191      C1196   1.450       .  S
C1192      C1193   1.421       .  A
C1192      C1208   1.450       .  S
C1193      C1194   1.418       .  A
C1194      C1197   1.451       .  S
C1195      C1198   1.410       .  A
C1195      C1202   1.411       .  A
C1196      N1213   1.157       .  T
C1197      N1215   1.157       .  T
C1198      C1199   1.416       .  A
C1198      C1203   1.450       .  S
C1199      C1200   1.419       .  A
C1199      C1205   1.451       .  S
C1200      C1201   1.414       .  A
C1201      C1202   1.412       .  A
C1201      C1204   1.447       .  S
C1202      C1206   1.451       .  S
C1203      N1210   1.157       .  T
C1204      N1211   1.156       .  T
C1205      N1209   1.157       .  T
C1206      N1212   1.157       .  T
C1207      N1216   1.157       .  T
C1208      N1214   1.158       .  T
C1217      C1218   1.410       .  A
C1217      C1222   1.419       .  A
C1217      C1235   1.449       .  S
C1218      C1223   1.506       .  S
C1218      C1219   1.409       .  A
C1219      C1220   1.413       .  A
C1219      C1224   1.453       .  S
C1220      C1221   1.425       .  A
C1220      C1236   1.452       .  S
C1221      C1222   1.423       .  A
C1222      C1225   1.450       .  S
C1223      C1226   1.413       .  A
C1223      C1230   1.413       .  A
C1224      N1241   1.157       .  T
C1225      N1243   1.158       .  T
C1226      C1227   1.414       .  A
C1226      C1231   1.450       .  S
C1227      C1228   1.412       .  A
C1227      C1233   1.451       .  S
C1228      C1229   1.412       .  A
C1229      C1230   1.415       .  A
C1229      C1232   1.450       .  S
C1230      C1234   1.449       .  S
C1231      N1238   1.157       .  T
C1232      N1239   1.157       .  T
C1233      N1237   1.157       .  T
C1234      N1240   1.157       .  T
C1235      N1244   1.157       .  T
C1236      N1242   1.158       .  T
C1245      C1246   1.409       .  A
C1245      C1250   1.412       .  A
C1245      C1263   1.451       .  S
C1246      C1251   1.502       .  S
C1246      C1247   1.412       .  A
C1247      C1248   1.415       .  A
C1247      C1252   1.451       .  S
C1248      C1249   1.418       .  A
C1248      C1264   1.450       .  S
C1249      C1250   1.420       .  A
C1250      C1253   1.451       .  S
C1251      C1254   1.411       .  A
C1251      C1258   1.415       .  A
C1252      N1269   1.157       .  T
C1253      N1271   1.157       .  T
C1254      C1255   1.408   1_655  A
C1254      C1259   1.451       .  S
C1255      C1256   1.414       .  A
C1255      C1261   1.452       .  S
C1256      C1257   1.410   1_455  A
C1257      C1258   1.417       .  A
C1257      C1260   1.449       .  S
C1258      C1262   1.449       .  S
C1259      N1266   1.157       .  T
C1260      N1267   1.157       .  T
C1261      N1265   1.157       .  T
C1262      N1268   1.157       .  T
C1263      N1272   1.157       .  T
C1264      N1270   1.157       .  T
