geometry optimzed in LAMMPS
_audit_creation_date              2020-12-01 
_audit_creation_method            'lammps2cif' 
_symmetry_space_group_name_H-M    'P1' 
_symmetry_Int_Tables_number       1 
_symmetry_cell_setting            triclinic 
loop_ 
_symmetry_equiv_pos_as_xyz 
  x,y,z 
_cell_length_a                    39.37278207 
_cell_length_b                    39.37294005465017 
_cell_length_c                    27.451495557588267 
_cell_angle_alpha                 90.00128312585814 
_cell_angle_beta                  89.99729006770959 
_cell_angle_gamma                 90.00088058943554 
loop_ 
_atom_site_label 
_atom_site_type_symbol 
_atom_site_fract_x 
_atom_site_fract_y 
_atom_site_fract_z 
_atom_site_charge 
O1          O  0.04783944  0.39530014  0.52673851    -0.77600
C2          C  0.10786210  0.37952274  0.62588633     0.83400
O3          O  0.06782572  0.27670193  0.57765067    -0.78700
O4          O  0.03640961  0.35043093  0.72566605    -0.80200
O5          O  0.46435443  0.40273356  0.60612151    -0.80000
O6          O  0.49433123  0.38880842  0.50489256    -0.78600
Zn7        Zn  0.05644728  0.35341281  0.56211433     1.55700
O8          O  0.50753917  0.42502626  0.64768989    -0.80000
Cd9        Cd  0.48451996  0.36206446  0.57209253     1.59700
Cd10       Cd  0.02987962  0.29941572  0.62500238     1.59600
O11         O  0.45063034  0.32311769  0.58645547    -0.80000
O12         O  0.02490364  0.34822691  0.60864125    -1.90500
Cd13       Cd  0.03587872  0.37980355  0.66138195     1.59900
O14         O  0.47885895  0.28237086  0.62800602    -0.80000
O15         O  0.08590534  0.39319533  0.65354506    -0.78600
C16         C  0.07386911  0.28920317  0.53549473     0.83900
C17         C  0.02235101  0.40532253  0.50258243     0.83600
O18         O  0.10036217  0.35832752  0.59291537    -0.77600
C19         C  0.47995426  0.42830107  0.62324418     0.84400
O20         O  0.05562023  0.31340239  0.52006457    -0.77700
C21         C  0.45119063  0.29589566  0.61236470     0.84500
C22         C  0.04774208  0.31992066  0.73054034     0.84800
O23         O  0.04958203  0.29896047  0.69511928    -0.80100
O24         O  0.13481702  0.30835593  0.98231834    -0.77600
C25         C  0.11903768  0.36838110  0.88323195     0.83400
O26         O  0.01621310  0.32839332  0.93150121    -0.78700
O27         O  0.08988087  0.29698373  0.78345699    -0.80200
O28         O  0.14219093  0.22487669  0.90301170    -0.80000
O29         O  0.12826689  0.25486561  0.00422014    -0.78600
Zn30       Zn  0.09291862  0.31698090  0.94698345     1.55700
O31         O  0.16447849  0.26802455  0.86135200    -0.80000
Cd32       Cd  0.10152170  0.24505589  0.93701988     1.59700
Cd33       Cd  0.03888535  0.29043499  0.88413937     1.59600
O34         O  0.06258207  0.21116726  0.92261323    -0.80000
O35         O  0.08769935  0.28543973  0.90046574    -1.90500
Cd36       Cd  0.11927452  0.29640732  0.84771974     1.59900
O37         O  0.02182414  0.23942072  0.88112013    -0.80000
O38         O  0.13271342  0.34641831  0.85558718    -0.78600
C39         C  0.02873683  0.33444540  0.97364014     0.83900
C40         C  0.14481156  0.28286904  0.00650173     0.83600
O41         O  0.09782527  0.36089064  0.91618310    -0.77600
C42         C  0.16775250  0.24044624  0.88581490     0.84400
O43         O  0.05292993  0.31618726  0.98906794    -0.77700
C44         C  0.03536002  0.21174245  0.89670601     0.84500
C45         C  0.05936598  0.30830680  0.77859487     0.84800
O46         O  0.03841021  0.31013902  0.81402302    -0.80100
O47         O  0.20208835  0.37556119  0.52674218    -0.77600
C48         C  0.14206070  0.39135778  0.62588243     0.83400
O49         O  0.18211569  0.99417911  0.57759716    -0.78700
O50         O  0.21350244  0.42046812  0.72565490    -0.80200
O51         O  0.28556237  0.36812194  0.60608980    -0.80000
O52         O  0.25559522  0.38205440  0.50488033    -0.78600
Zn53       Zn  0.19347745  0.41745655  0.56209928     1.55700
O54         O  0.24237755  0.34584508  0.64767891    -0.80000
Cd55       Cd  0.26540959  0.40880269  0.57207842     1.59700
Cd56       Cd  0.22005008  0.47146483  0.62496832     1.59600
O57         O  0.29931172  0.44773675  0.58647930    -0.80000
O58         O  0.22502196  0.42264937  0.60862189    -1.90500
Cd59       Cd  0.21404375  0.39107947  0.66137240     1.59900
O60         O  0.27107137  0.48849876  0.62798968    -0.80000
O61         O  0.16401755  0.37768721  0.65353891    -0.78600
C62         C  0.17606749  0.48166929  0.53544685     0.83900
C63         C  0.22757665  0.36553655  0.50258333     0.83600
O64         O  0.14956088  0.41254937  0.59290695    -0.77600
C65         C  0.26996002  0.34256003  0.62322386     0.84400
O66         O  0.19430421  0.45745597  0.52002756    -0.77700
C67         C  0.29874449  0.47496240  0.61238364     0.84500
C68         C  0.20218149  0.45098454  0.73052207     0.84800
O69         O  0.20034776  0.47193748  0.69509205    -0.80100
O70         O  0.11508846  0.46263970  0.98232595    -0.77600
C71         C  0.13087957  0.40257506  0.88323550     0.83400
O72         O  0.23370679  0.44259842  0.93152900    -0.78700
O73         O  0.16004279  0.47393887  0.78343420    -0.80200
O74         O  0.10773179  0.04610017  0.90288395    -0.80000
O75         O  0.12160528  0.01615070  0.00415024    -0.78600
Zn76       Zn  0.15698635  0.45399691  0.94698934     1.55700
O77         O  0.08543139  0.00291203  0.86133177    -0.80000
Cd78       Cd  0.14837583  0.02592668  0.93695760     1.59700
Cd79       Cd  0.21103060  0.48052848  0.88412351     1.59600
O80         O  0.18732291  0.05980792  0.92256828    -0.80000
O81         O  0.16221270  0.48552309  0.90044707    -1.90500
Cd82       Cd  0.13064543  0.47453985  0.84769849     1.59900
O83         O  0.22808694  0.03154401  0.88109417    -0.80000
O84         O  0.11721566  0.42453127  0.85557276    -0.78600
C85         C  0.22118041  0.43655988  0.97367257     0.83900
C86         C  0.10507679  0.48813958  0.00647006     0.83600
O87         O  0.15207088  0.41007373  0.91621035    -0.77600
C88         C  0.08216234  0.03050832  0.88575667     0.84400
O89         O  0.19697302  0.45480995  0.98907848    -0.77700
C90         C  0.21455077  0.05922548  0.89667160     0.84500
C91         C  0.19055842  0.46261522  0.77857633     0.84800
O92         O  0.21151408  0.46080076  0.81400603    -0.80100
O93         O  0.38487334  0.21249200  0.52691883    -0.77600
C94         C  0.36903509  0.15252423  0.62596420     0.83400
O95         O  0.26624281  0.19249050  0.57755502    -0.78700
O96         O  0.33988513  0.22394702  0.72563257    -0.80200
O97         O  0.39222953  0.29599219  0.60582184    -0.80000
O98         O  0.37818469  0.26591217  0.50475731    -0.78600
Zn99       Zn  0.34294229  0.20389236  0.56219824     1.55700
O100        O  0.41447921  0.25293529  0.64772885    -0.80000
Cd101      Cd  0.35149961  0.27580207  0.57198078     1.59700
Cd102      Cd  0.28888821  0.23045247  0.62494424     1.59600
O103        O  0.31256891  0.30970354  0.58640612    -0.80000
O104        O  0.33770313  0.23546419  0.60864598    -1.90500
Cd105      Cd  0.36929046  0.22452251  0.66137454     1.59900
O106        O  0.27181724  0.28146371  0.62793768    -0.78400
O107        O  0.38275879  0.17451211  0.65351947    -0.78600
C108        C  0.27879075  0.18645356  0.53542407     0.83900
C109        C  0.39479934  0.23794518  0.50260009     0.83600
O110        O  0.34777190  0.15999283  0.59307356    -0.77600
C111        C  0.41777075  0.28047194  0.62316945     0.84400
O112        O  0.30299918  0.20471141  0.52004352    -0.77700
C113        C  0.28535048  0.30913736  0.61232729     0.84500
C114        C  0.30937154  0.21261802  0.73049923     0.84800
O115        O  0.28841827  0.21076694  0.69507139    -0.80100
O116        O  0.29778548  0.12565080  0.98242227    -0.77600
C117        C  0.35786408  0.14140634  0.88327799     0.83400
O118        O  0.31779916  0.24424355  0.93144057    -0.78700
O119        O  0.28642733  0.17049711  0.78343938    -0.80200
O120        O  0.21431367  0.11822041  0.90277031    -0.80000
O121        O  0.24422878  0.13204843  0.00409595    -0.78600
Zn122      Zn  0.30641897  0.16752594  0.94703023     1.55700
O123        O  0.25756945  0.09590225  0.86139178    -0.80000
Cd124      Cd  0.23447102  0.15884562  0.93692054     1.59700
Cd125      Cd  0.27986155  0.22152049  0.88409162     1.59600
O126        O  0.20059179  0.19779973  0.92255606    -0.80000
O127        O  0.27489406  0.17270711  0.90046395    -1.90500
Cd128      Cd  0.28589586  0.14113461  0.84772415     1.59900
O129        O  0.22884315  0.23856376  0.88106605    -0.80000
O130        O  0.33592181  0.12775958  0.85557311    -0.78600
C131        C  0.32385135  0.23175037  0.97359819     0.83900
C132        C  0.27227191  0.11558018  0.00648555     0.83600
O133        O  0.35034947  0.16257394  0.91627967    -0.77600
C134        C  0.22994729  0.09263929  0.88575414     0.84400
O135        O  0.30560514  0.20755434  0.98905228    -0.77700
C136        C  0.20116665  0.22503006  0.89666592     0.84500
C137        C  0.29774735  0.20101093  0.77855788     0.84800
O138        O  0.29957339  0.22197747  0.81397326    -0.80100
O139        O  0.36503703  0.05833271  0.52691204    -0.77600
C140        C  0.38088647  0.11833128  0.62596247     0.83400
O141        O  0.48367702  0.07833831  0.57752343    -0.78700
O142        O  0.41003442  0.04695080  0.72565265    -0.80200
O143        O  0.35771729  0.47482846  0.60598101    -0.80000
O144        O  0.37168172  0.50488716  0.50483929    -0.78600
Zn145      Zn  0.40696781  0.06694501  0.56219110     1.55700
O146        O  0.33543866  0.01793565  0.64774645    -0.80000
Cd147      Cd  0.39840250  0.49503064  0.57203945     1.59700
Cd148      Cd  0.46102332  0.04040647  0.62495486     1.59600
O149        O  0.43734746  0.46114583  0.58641850    -0.80000
O150        O  0.41220947  0.03538814  0.60866045    -1.90500
Cd151      Cd  0.38062931  0.04634285  0.66139687     1.59900
O152        O  0.47808434  0.48939387  0.62796669    -0.80000
O153        O  0.36716614  0.09634917  0.65352984    -0.78600
C154        C  0.47112988  0.08436161  0.53538987     0.83900
C155        C  0.35508995  0.03286549  0.50263947     0.83600
O156        O  0.40213801  0.11085511  0.59305485    -0.77600
C157        C  0.33216119  0.49037642  0.62323459     0.84400
O158        O  0.44691274  0.06610771  0.52002989    -0.77700
C159        C  0.46455979  0.46171846  0.61234690     0.84500
C160        C  0.44054417  0.05829312  0.73050562     0.84800
O161        O  0.46149669  0.06012964  0.69507136    -0.80100
O162        O  0.45213003  0.14530863  0.98240758    -0.77600
C163        C  0.39206317  0.12957396  0.88327957     0.83400
O164        O  0.43210880  0.02670899  0.93145109    -0.78700
O165        O  0.46347758  0.10043961  0.78343102    -0.80200
O166        O  0.03559172  0.15275093  0.90285059    -0.80000
O167        O  0.00567053  0.13888176  0.00413158    -0.78600
Zn168      Zn  0.44349361  0.10343376  0.94702390     1.55700
O169        O  0.99236526  0.17505048  0.86139105    -0.80000
Cd170      Cd  0.01544024  0.11209840  0.93694118     1.59700
Cd171      Cd  0.47005167  0.04942799  0.88410067     1.59600
O172        O  0.04932715  0.07315282  0.92252544    -0.80000
O173        O  0.47502353  0.09824461  0.90046313    -1.90500
Cd174      Cd  0.46403183  0.12981794  0.84771839     1.59900
O175        O  0.02106871  0.03237981  0.88106417    -0.80000
O176        O  0.41401100  0.14321714  0.85557788    -0.78600
C177        C  0.42604957  0.03920791  0.97360485     0.83900
C178        C  0.47763563  0.15536711  0.00649437     0.83600
O179        O  0.39956957  0.10839945  0.91627309    -0.77600
C180        C  0.01996961  0.17832381  0.88579121     0.84400
O181        O  0.44428980  0.06340978  0.98905449    -0.77700
C182        C  0.04874841  0.04591917  0.89663914     0.84500
C183        C  0.45216614  0.06992032  0.77855940     0.84800
O184        O  0.45034586  0.04896071  0.81398252    -0.80100
O185        O  0.40203377  0.16008494  0.09274880    -0.77600
C186        C  0.35507148  0.23814337  0.00250675     0.83400
O187        O  0.48373917  0.19264821  0.07755779    -0.78700
O188        O  0.43727666  0.30984974  0.08643321    -0.80200
O189        O  0.33539417  0.25289527  0.14766292    -0.80000
O190        O  0.36722004  0.17453500  0.15344844    -0.78600
Zn191      Zn  0.40700418  0.20400904  0.06198878     1.55700
O192        O  0.35767968  0.29610296  0.10613866    -0.80000
Cd193      Cd  0.38062522  0.22455499  0.16130519     1.59700
Cd194      Cd  0.46101071  0.23058284  0.12491507     1.59600
O195        O  0.41000069  0.22399097  0.22558878    -0.80000
O196        O  0.41219271  0.23554259  0.10854769    -1.90500
Cd197      Cd  0.39833571  0.27595220  0.07205354     1.59900
O198        O  0.46147910  0.21086105  0.19503384    -0.80000
O199        O  0.37155670  0.26617823  0.00486676    -0.78600
C200        C  0.47123859  0.18658603  0.03540719     0.83900
C201        C  0.38085669  0.15258369  0.12574555     0.83600
O202        O  0.36512948  0.21263852  0.02659507    -0.77600
C203        C  0.33211394  0.28049269  0.12324785     0.84400
O204        O  0.44703248  0.20482069  0.01996242    -0.77700
C205        C  0.44051571  0.21266989  0.23045664     0.84500
C206        C  0.46450327  0.30928360  0.11233179     0.84800
O207        O  0.47804019  0.28161056  0.12793661    -0.80100
O208        O  0.39952931  0.16255804  0.41596821    -0.77600
C209        C  0.47751514  0.11553805  0.50638223     0.83400
O210        O  0.43202573  0.24411400  0.43148160    -0.78700
O211        O  0.04923414  0.19780249  0.42263584    -0.80200
O212        O  0.99245186  0.09589308  0.36128545    -0.80000
O213        O  0.41403051  0.12760697  0.35546876    -0.78600
Zn214      Zn  0.44343458  0.16740201  0.44681678     1.55700
O215        O  0.03555867  0.11818077  0.40303753    -0.80000
Cd216      Cd  0.46404136  0.14108226  0.34760857     1.59700
Cd217      Cd  0.46998579  0.22147913  0.38407673     1.59600
O218        O  0.46344566  0.17050680  0.28335664    -0.80000
O219        O  0.47499431  0.17266060  0.40035101    -1.90500
Cd220      Cd  0.01534733  0.15885580  0.43698506     1.59900
O221        O  0.45029645  0.22197357  0.31394888    -0.80000
O222        O  0.00548952  0.13213751  0.50418814    -0.78600
C223        C  0.42598369  0.23155888  0.47360587     0.83900
C224        C  0.39205055  0.14131417  0.38305538     0.83600
O225        O  0.45205246  0.12547334  0.48209384    -0.77600
C226        C  0.02000914  0.09262029  0.38580183     0.84400
O227        O  0.44423585  0.20734434  0.48897812    -0.77700
C228        C  0.45212896  0.20102715  0.27850828     0.84500
C229        C  0.04867058  0.22502308  0.39672555     0.84800
O230        O  0.02099959  0.23855093  0.38109933    -0.80100
O231        O  0.34784953  0.11087826  0.09273727    -0.77600
C232        C  0.39482873  0.03281261  0.00251603     0.83400
O233        O  0.26616911  0.07831633  0.07756190    -0.78700
O234        O  0.31261654  0.46110927  0.08649000    -0.80200
O235        O  0.41450400  0.01809216  0.14763319    -0.80000
O236        O  0.38264164  0.09644246  0.15346477    -0.78600
Zn237      Zn  0.34289060  0.06694830  0.06198698     1.55700
O238        O  0.39221542  0.47486454  0.10615735    -0.80000
Cd239      Cd  0.36926769  0.04641217  0.16130196     1.59700
Cd240      Cd  0.28889095  0.04038621  0.12492564     1.59600
O241        O  0.33989884  0.04691717  0.22559154    -0.80000
O242        O  0.33770438  0.03542014  0.10854974    -1.90500
Cd243      Cd  0.35155843  0.49500457  0.07206815     1.59900
O244        O  0.28842779  0.06008713  0.19505435    -0.80000
O245        O  0.37834412  0.50477678  0.00487895    -0.78600
C246        C  0.27866503  0.08436482  0.03540258     0.83900
C247        C  0.36901141  0.11838759  0.12574793     0.83600
O248        O  0.38476851  0.05831891  0.02660200    -0.77600
C249        C  0.41778317  0.49048822  0.12323240     0.84400
O250        O  0.30286764  0.06612410  0.01995762    -0.77700
C251        C  0.30938540  0.05823824  0.23047702     0.84500
C252        C  0.28538876  0.46168771  0.11239099     0.84800
O253        O  0.27185085  0.48936773  0.12796844    -0.80100
O254        O  0.35038060  0.10821851  0.41597536    -0.77600
C255        C  0.27241177  0.15526557  0.50643835     0.83400
O256        O  0.31787173  0.02669982  0.43151765    -0.78700
O257        O  0.20067006  0.07302530  0.42265957    -0.80200
O258        O  0.25745373  0.17493492  0.36135872    -0.80000
O259        O  0.33586899  0.14319330  0.35551286    -0.78600
Zn260      Zn  0.30647699  0.10340068  0.44685995     1.55700
O261        O  0.21436784  0.15266982  0.40318900    -0.80000
Cd262      Cd  0.28585342  0.12974373  0.34768395     1.59700
Cd263      Cd  0.27992637  0.04934713  0.38410259     1.59600
O264        O  0.28642244  0.10035030  0.28341955    -0.80000
O265        O  0.27490938  0.09815705  0.40041145    -1.90500
Cd266      Cd  0.23456506  0.11195765  0.43706494     1.59900
O267        O  0.29962820  0.04888802  0.31397006    -0.80000
O268        O  0.24444417  0.13865207  0.50427779    -0.78600
C269        C  0.32390456  0.03924696  0.47365039     0.83900
C270        C  0.35785508  0.12946699  0.38306528     0.83600
O271        O  0.29786998  0.14533693  0.48212930    -0.77600
C272        C  0.22990588  0.17821940  0.38589641     0.84400
O273        O  0.30565183  0.06346116  0.48902469    -0.77700
C274        C  0.29776922  0.06984473  0.27854451     0.84500
C275        C  0.20123893  0.04581434  0.39672507     0.84800
O276        O  0.22891256  0.03228646  0.38110428    -0.80100
O277        O  0.14952270  0.35835933  0.09293050    -0.77600
C278        C  0.22756411  0.40535916  0.00262714     0.83400
O279        O  0.18205481  0.27672745  0.07759642    -0.78700
O280        O  0.29926242  0.32311209  0.08646331    -0.80200
O281        O  0.24239200  0.42500828  0.14773672    -0.80000
O282        O  0.16400144  0.39324906  0.15351978    -0.78600
Zn283      Zn  0.19344306  0.35344883  0.06213299     1.55700
O284        O  0.28557039  0.40270190  0.10616802    -0.80000
Cd285      Cd  0.21401045  0.37980050  0.16140435     1.59700
Cd286      Cd  0.22000032  0.29940901  0.12497467     1.59600
O287        O  0.21342333  0.35039452  0.22567330    -0.80000
O288        O  0.22498401  0.34822864  0.10865568    -1.90500
Cd289      Cd  0.26537640  0.36206065  0.07211088     1.59900
O290        O  0.20030171  0.29891736  0.19509984    -0.80000
O291        O  0.25557557  0.38883090  0.00492948    -0.78600
C292        C  0.17601250  0.28925293  0.03545550     0.83900
C293        C  0.14203593  0.37958052  0.12587338     0.83600
O294        O  0.20207092  0.39534845  0.02678798    -0.77600
C295        C  0.26998186  0.42827429  0.12329360     0.84400
O296        O  0.19426340  0.31345885  0.02004780    -0.77700
C297        C  0.20212089  0.31986998  0.23053314     0.84500
C298        C  0.29869324  0.29588913  0.11236868     0.84800
O299        O  0.27101858  0.28235583  0.12797705    -0.80100
O300        O  0.15205205  0.36082453  0.41621333    -0.77600
C301        C  0.10507262  0.28280692  0.50654672     0.83400
O302        O  0.23369828  0.32826895  0.43150724    -0.78700
O303        O  0.18726772  0.21107716  0.42264114    -0.80200
O304        O  0.08538493  0.26799587  0.36139592    -0.80000
O305        O  0.11721316  0.34636831  0.35555451    -0.78600
Zn306      Zn  0.15697043  0.31690774  0.44700525     1.55700
O307        O  0.10764654  0.22483759  0.40305958    -0.80000
Cd308      Cd  0.13061220  0.29634206  0.34773180     1.59700
Cd309      Cd  0.21099504  0.29033354  0.38413105     1.59600
O310        O  0.15999674  0.29689510  0.28345460    -0.80000
O311        O  0.16217932  0.28536436  0.40048284    -1.90500
Cd312      Cd  0.14833945  0.24498385  0.43704717     1.59900
O313        O  0.21146644  0.31005344  0.31401184    -0.80000
O314        O  0.12160684  0.25479785  0.50426322    -0.78600
C315        C  0.22117883  0.33432826  0.47364921     0.83900
C316        C  0.13087321  0.36832535  0.38322341     0.83600
O317        O  0.11507720  0.30828905  0.48236078    -0.77600
C318        C  0.08209358  0.24042325  0.38586896     0.84400
O319        O  0.19696659  0.31609226  0.48907432    -0.77700
C320        C  0.19050761  0.30822970  0.27858730     0.84500
C321        C  0.21449248  0.21163888  0.39673411     0.84800
O322        O  0.22802853  0.23930923  0.38111629    -0.80100
O323        O  0.10037126  0.41267323  0.09293055    -0.77600
C324        C  0.02236082  0.36566039  0.00256757     0.83400
O325        O  0.06783250  0.99428150  0.07756737    -0.78700
O326        O  0.45063826  0.44788658  0.08640785    -0.80200
O327        O  0.50748181  0.34598277  0.14766980    -0.80000
O328        O  0.08586788  0.37775080  0.15346884    -0.78600
Zn329      Zn  0.05645878  0.41756540  0.06209560     1.55700
O330        O  0.46434490  0.36826229  0.10598269    -0.80000
Cd331      Cd  0.03585801  0.39118889  0.16132932     1.59700
Cd332      Cd  0.02989530  0.47158589  0.12495132     1.59600
O333        O  0.03643549  0.42056368  0.22561115    -0.80000
O334        O  0.02490365  0.42277330  0.10859801    -1.90500
Cd335      Cd  0.48453068  0.40894890  0.07201732     1.59900
O336        O  0.04960731  0.47203838  0.19507663    -0.80000
O337        O  0.49436130  0.38221204  0.00482265    -0.78600
C338        C  0.07387174  0.48176182  0.03542007     0.83900
C339        C  0.10784575  0.39144017  0.12586274     0.83600
O340        O  0.04784444  0.37565805  0.02675827    -0.77600
C341        C  0.47991168  0.34270311  0.12318934     0.84400
O342        O  0.05562204  0.45755577  0.02001207    -0.77700
C343        C  0.04777284  0.45107205  0.23049251     0.84500
C344        C  0.45120450  0.47510092  0.11233502     0.84800
O345        O  0.47887612  0.48863136  0.12795705    -0.80100
O346        O  0.09787262  0.41003606  0.41621762    -0.77600
C347        C  0.14486656  0.48807120  0.50649729     0.83400
O348        O  0.01623467  0.44257317  0.43149150    -0.78700
O349        O  0.06264892  0.05978156  0.42257493    -0.80200
O350        O  0.16453919  0.00283683  0.36138583    -0.80000
O351        O  0.13269121  0.42447313  0.35552059    -0.78600
Zn352      Zn  0.09295262  0.45395748  0.44699205     1.55700
O353        O  0.14225286  0.04603889  0.40292571    -0.80000
Cd354      Cd  0.11930808  0.47450539  0.34769903     1.59700
Cd355      Cd  0.03893201  0.48051243  0.38411581     1.59600
O356        O  0.08991829  0.47399445  0.28342565    -0.80000
O357        O  0.08774621  0.48549059  0.40045707    -1.90500
Cd358      Cd  0.10158916  0.02588745  0.43698355     1.59900
O359        O  0.03845368  0.46081663  0.31398972    -0.80000
O360        O  0.12835242  0.01609126  0.50418204    -0.78600
C361        C  0.02874784  0.43652589  0.47363882     0.83900
C362        C  0.11904106  0.40252529  0.38321604     0.83600
O363        O  0.13484357  0.46258060  0.48234498    -0.77600
C364        C  0.16781870  0.03042720  0.38582057     0.84400
O365        O  0.05295368  0.45477039  0.48906218    -0.77700
C366        C  0.05940324  0.46267163  0.27855567     0.84500
C367        C  0.03542291  0.05920662  0.39667419     0.84800
O368        O  0.02188745  0.03152874  0.38108511    -0.80100
O369        O  0.04783944  0.89530012  0.52673848    -0.77600
C370        C  0.10786206  0.87952274  0.62588635     0.83400
O371        O  0.06782559  0.77670190  0.57765067    -0.78700
O372        O  0.03640946  0.85043088  0.72566592    -0.80200
O373        O  0.46435443  0.90273355  0.60612149    -0.80000
O374        O  0.49433115  0.88880840  0.50489236    -0.78600
Zn375      Zn  0.05644732  0.85341281  0.56211433     1.55700
O376        O  0.50753914  0.92502628  0.64768988    -0.80000
Cd377      Cd  0.48452002  0.86206447  0.57209251     1.59700
Cd378      Cd  0.02987948  0.79941572  0.62500238     1.59600
O379        O  0.45063036  0.82311770  0.58645545    -0.80000
O380        O  0.02490366  0.84822692  0.60864122    -1.90500
Cd381      Cd  0.03587857  0.87980355  0.66138194     1.59900
O382        O  0.47885892  0.78237085  0.62800604    -0.80000
O383        O  0.08590532  0.89319532  0.65354511    -0.78600
C384        C  0.07386909  0.78920317  0.53549476     0.83900
C385        C  0.02235100  0.90532252  0.50258241     0.83600
O386        O  0.10036212  0.85832753  0.59291539    -0.77600
C387        C  0.47995423  0.92830107  0.62324422     0.84400
O388        O  0.05562028  0.81340241  0.52006456    -0.77700
C389        C  0.45119061  0.79589568  0.61236468     0.84500
C390        C  0.04774210  0.81992067  0.73054026     0.84800
O391        O  0.04958208  0.79896045  0.69511923    -0.80100
O392        O  0.13481696  0.80835593  0.98231842    -0.77600
C393        C  0.11903774  0.86838110  0.88323186     0.83400
O394        O  0.01621310  0.82839336  0.93150119    -0.78700
O395        O  0.08988092  0.79698374  0.78345697    -0.80200
O396        O  0.14219081  0.72487670  0.90301167    -0.80000
O397        O  0.12826694  0.75486558  0.00422010    -0.78600
Zn398      Zn  0.09291864  0.81698091  0.94698345     1.55700
O399        O  0.16447848  0.76802453  0.86135202    -0.80000
Cd400      Cd  0.10152155  0.74505590  0.93701990     1.59700
Cd401      Cd  0.03888521  0.79043499  0.88413936     1.59600
O402        O  0.06258209  0.71116724  0.92261323    -0.80000
O403        O  0.08769932  0.78543974  0.90046571    -1.90500
Cd404      Cd  0.11927458  0.79640732  0.84771973     1.59900
O405        O  0.02182417  0.73942069  0.88112012    -0.80000
O406        O  0.13271349  0.84641831  0.85558712    -0.78600
C407        C  0.02873683  0.83444541  0.97364013     0.83900
C408        C  0.14481157  0.78286903  0.00650173     0.83600
O409        O  0.09782535  0.86089064  0.91618303    -0.77600
C410        C  0.16775241  0.74044621  0.88581493     0.84400
O411        O  0.05292987  0.81618721  0.98906795    -0.77700
C412        C  0.03536007  0.71174244  0.89670600     0.84500
C413        C  0.05936603  0.80830684  0.77859485     0.84800
O414        O  0.03841025  0.81013904  0.81402299    -0.80100
O415        O  0.20208832  0.87556120  0.52674213    -0.77600
C416        C  0.14206070  0.89135777  0.62588241     0.83400
O417        O  0.18211562  0.49417910  0.57759716    -0.78700
O418        O  0.21350232  0.92046809  0.72565490    -0.80200
O419        O  0.28556239  0.86812194  0.60608985    -0.80000
O420        O  0.25559522  0.88205439  0.50488037    -0.78600
Zn421      Zn  0.19347748  0.91745654  0.56209927     1.55700
O422        O  0.24237750  0.84584508  0.64767883    -0.80000
Cd423      Cd  0.26540963  0.90880269  0.57207843     1.59700
Cd424      Cd  0.22005013  0.97146483  0.62496832     1.59600
O425        O  0.29931177  0.94773674  0.58647923    -0.80000
O426        O  0.22502192  0.92264937  0.60862187    -1.90500
Cd427      Cd  0.21404379  0.89107947  0.66137240     1.59900
O428        O  0.27107141  0.98849875  0.62798961    -0.80000
O429        O  0.16401756  0.87768720  0.65353890    -0.78600
C430        C  0.17606751  0.98166929  0.53544685     0.83900
C431        C  0.22757664  0.86553654  0.50258334     0.83600
O432        O  0.14956089  0.91254936  0.59290694    -0.77600
C433        C  0.26996001  0.84256003  0.62322388     0.84400
O434        O  0.19430414  0.95745591  0.52002755    -0.77700
C435        C  0.29874453  0.97496239  0.61238350     0.84500
C436        C  0.20218149  0.95098455  0.73052208     0.84800
O437        O  0.20034784  0.97193750  0.69509206    -0.80100
O438        O  0.11508838  0.96263969  0.98232590    -0.77600
C439        C  0.13087964  0.90257505  0.88323545     0.83400
O440        O  0.23370679  0.94259847  0.93152902    -0.78700
O441        O  0.16004276  0.97393889  0.78343418    -0.80200
O442        O  0.10773179  0.54610016  0.90288388    -0.80000
O443        O  0.12160530  0.51615071  0.00415026    -0.78600
Zn444      Zn  0.15698638  0.95399691  0.94698934     1.55700
O445        O  0.08543138  0.50291201  0.86133177    -0.80000
Cd446      Cd  0.14837569  0.52592668  0.93695759     1.59700
Cd447      Cd  0.21103045  0.98052848  0.88412352     1.59600
O448        O  0.18732283  0.55980789  0.92256821    -0.80000
O449        O  0.16221266  0.98552309  0.90044705    -1.90500
Cd450      Cd  0.13064531  0.97453984  0.84769849     1.59900
O451        O  0.22808698  0.53154403  0.88109423    -0.80000
O452        O  0.11721569  0.92453127  0.85557275    -0.78600
C453        C  0.22118039  0.93655989  0.97367258     0.83900
C454        C  0.10507675  0.98813956  0.00647006     0.83600
O455        O  0.15207094  0.91007371  0.91621032    -0.77600
C456        C  0.08216234  0.53050831  0.88575666     0.84400
O457        O  0.19697296  0.95480991  0.98907846    -0.77700
C458        C  0.21455074  0.55922548  0.89667163     0.84500
C459        C  0.19055840  0.96261524  0.77857633     0.84800
O460        O  0.21151400  0.96080073  0.81400608    -0.80100
O461        O  0.38487328  0.71249199  0.52691877    -0.77600
C462        C  0.36903509  0.65252422  0.62596422     0.83400
O463        O  0.26624286  0.69249050  0.57755504    -0.78700
O464        O  0.33988510  0.72394705  0.72563258    -0.80200
O465        O  0.39222944  0.79599217  0.60582187    -0.80000
O466        O  0.37818472  0.76591219  0.50475737    -0.78600
Zn467      Zn  0.34294234  0.70389236  0.56219824     1.55700
O468        O  0.41447924  0.75293529  0.64772884    -0.80000
Cd469      Cd  0.35149947  0.77580206  0.57198077     1.59700
Cd470      Cd  0.28888827  0.73045247  0.62494424     1.59600
O471        O  0.31256888  0.80970354  0.58640619    -0.80000
O472        O  0.33770317  0.73546418  0.60864600    -1.90500
Cd473      Cd  0.36929052  0.72452251  0.66137455     1.59900
O474        O  0.27181717  0.78146371  0.62793763    -0.78400
O475        O  0.38275881  0.67451210  0.65351946    -0.78600
C476        C  0.27879080  0.68645357  0.53542405     0.83900
C477        C  0.39479934  0.73794518  0.50260011     0.83600
O478        O  0.34777193  0.65999283  0.59307355    -0.77600
C479        C  0.41777072  0.78047196  0.62316942     0.84400
O480        O  0.30299923  0.70471139  0.52004353    -0.77700
C481        C  0.28535045  0.80913736  0.61232732     0.84500
C482        C  0.30937152  0.71261801  0.73049923     0.84800
O483        O  0.28841828  0.71076691  0.69507137    -0.80100
O484        O  0.29778544  0.62565079  0.98242222    -0.77600
C485        C  0.35786409  0.64140632  0.88327802     0.83400
O486        O  0.31779900  0.74424356  0.93144060    -0.78700
O487        O  0.28642719  0.67049712  0.78343937    -0.80200
O488        O  0.21431368  0.61822041  0.90277036    -0.80000
O489        O  0.24422877  0.63204845  0.00409599    -0.78600
Zn490      Zn  0.30641902  0.66752594  0.94703023     1.55700
O491        O  0.25756937  0.59590223  0.86139172    -0.80000
Cd492      Cd  0.23447108  0.65884562  0.93692054     1.59700
Cd493      Cd  0.27986137  0.72152049  0.88409162     1.59600
O494        O  0.20059180  0.69779971  0.92255608    -0.80000
O495        O  0.27489408  0.67270711  0.90046397    -1.90500
Cd496      Cd  0.28589571  0.64113460  0.84772414     1.59900
O497        O  0.22884303  0.73856378  0.88106603    -0.80000
O498        O  0.33592180  0.62775959  0.85557311    -0.78600
C499        C  0.32385125  0.73175037  0.97359821     0.83900
C500        C  0.27227189  0.61558019  0.00648557     0.83600
O501        O  0.35034952  0.66257394  0.91627969    -0.77600
C502        C  0.22994726  0.59263929  0.88575418     0.84400
O503        O  0.30560502  0.70755436  0.98905231    -0.77700
C504        C  0.20116658  0.72503006  0.89666593     0.84500
C505        C  0.29774728  0.70101092  0.77855788     0.84800
O506        O  0.29957325  0.72197747  0.81397326    -0.80100
O507        O  0.36503696  0.55833272  0.52691209    -0.77600
C508        C  0.38088649  0.61833128  0.62596247     0.83400
O509        O  0.48367705  0.57833828  0.57752339    -0.78700
O510        O  0.41003448  0.54695080  0.72565264    -0.80200
O511        O  0.35771731  0.97482848  0.60598101    -0.80000
O512        O  0.37168183  0.00488716  0.50483925    -0.78600
Zn513      Zn  0.40696784  0.56694501  0.56219111     1.55700
O514        O  0.33543872  0.51793566  0.64774647    -0.80000
Cd515      Cd  0.39840256  0.99503064  0.57203945     1.59700
Cd516      Cd  0.46102338  0.54040647  0.62495486     1.59600
O517        O  0.43734746  0.96114583  0.58641849    -0.80000
O518        O  0.41220952  0.53538813  0.60866045    -1.90500
Cd519      Cd  0.38062937  0.54634285  0.66139687     1.59900
O520        O  0.47808433  0.98939387  0.62796668    -0.80000
O521        O  0.36716620  0.59634915  0.65352984    -0.78600
C522        C  0.47112985  0.58436158  0.53538985     0.83900
C523        C  0.35508989  0.53286552  0.50263949     0.83600
O524        O  0.40213805  0.61085513  0.59305487    -0.77600
C525        C  0.33216117  0.99037645  0.62323454     0.84400
O526        O  0.44691268  0.56610773  0.52002992    -0.77700
C527        C  0.46455977  0.96171846  0.61234694     0.84500
C528        C  0.44054422  0.55829312  0.73050561     0.84800
O529        O  0.46149676  0.56012965  0.69507136    -0.80100
O530        O  0.45212993  0.64530864  0.98240759    -0.77600
C531        C  0.39206318  0.62957395  0.88327957     0.83400
O532        O  0.43210884  0.52670898  0.93145108    -0.78700
O533        O  0.46347766  0.60043958  0.78343104    -0.80200
O534        O  0.03559178  0.65275092  0.90285060    -0.80000
O535        O  0.00567043  0.63888175  0.00413157    -0.78600
Zn536      Zn  0.44349365  0.60343376  0.94702391     1.55700
O537        O  0.99236532  0.67505048  0.86139105    -0.80000
Cd538      Cd  0.01544028  0.61209840  0.93694118     1.59700
Cd539      Cd  0.47005171  0.54942799  0.88410067     1.59600
O540        O  0.04932721  0.57315283  0.92252545    -0.80000
O541        O  0.47502350  0.59824461  0.90046315    -1.90500
Cd542      Cd  0.46403187  0.62981794  0.84771839     1.59900
O543        O  0.02106874  0.53237986  0.88106418    -0.80000
O544        O  0.41401098  0.64321713  0.85557782    -0.78600
C545        C  0.42604957  0.53920793  0.97360481     0.83900
C546        C  0.47763555  0.65536712  0.00649435     0.83600
O547        O  0.39956961  0.60839945  0.91627309    -0.77600
C548        C  0.01996967  0.67832381  0.88579120     0.84400
O549        O  0.44428982  0.56340977  0.98905448    -0.77700
C550        C  0.04874845  0.54591918  0.89663915     0.84500
C551        C  0.45216616  0.56992032  0.77855941     0.84800
O552        O  0.45034574  0.54896073  0.81398256    -0.80100
O553        O  0.40203380  0.66008494  0.09274889    -0.77600
C554        C  0.35507147  0.73814336  0.00250672     0.83400
O555        O  0.48373906  0.69264819  0.07755779    -0.78700
O556        O  0.43727660  0.80984973  0.08643334    -0.80200
O557        O  0.33539417  0.75289530  0.14766290    -0.80000
O558        O  0.36721991  0.67453500  0.15344837    -0.78600
Zn559      Zn  0.40700422  0.70400904  0.06198880     1.55700
O560        O  0.35767973  0.79610297  0.10613865    -0.80000
Cd561      Cd  0.38062508  0.72455498  0.16130519     1.59700
Cd562      Cd  0.46101076  0.73058284  0.12491508     1.59600
O563        O  0.41000065  0.72399092  0.22558877    -0.80000
O564        O  0.41219274  0.73554259  0.10854773    -1.90500
Cd565      Cd  0.39833576  0.77595220  0.07205353     1.59900
O566        O  0.46147911  0.71086107  0.19503385    -0.80000
O567        O  0.37155672  0.76617821  0.00486674    -0.78600
C568        C  0.47123851  0.68658604  0.03540715     0.83900
C569        C  0.38085665  0.65258369  0.12574557     0.83600
O570        O  0.36512951  0.71263851  0.02659504    -0.77600
C571        C  0.33211397  0.78049271  0.12324784     0.84400
O572        O  0.44703240  0.70482068  0.01996239    -0.77700
C573        C  0.44051570  0.71266989  0.23045664     0.84500
C574        C  0.46450325  0.80928359  0.11233193     0.84800
O575        O  0.47804022  0.78161058  0.12793662    -0.80100
O576        O  0.39952930  0.66255805  0.41596820    -0.77600
C577        C  0.47751510  0.61553799  0.50638221     0.83400
O578        O  0.43202565  0.74411396  0.43148157    -0.78700
O579        O  0.04923402  0.69780249  0.42263584    -0.80200
O580        O  0.99245179  0.59589308  0.36128554    -0.80000
O581        O  0.41403043  0.62760696  0.35546871    -0.78600
Zn582      Zn  0.44343444  0.66740202  0.44681678     1.55700
O583        O  0.03555865  0.61818079  0.40303749    -0.80000
Cd584      Cd  0.46404120  0.64108226  0.34760857     1.59700
Cd585      Cd  0.46998584  0.72147914  0.38407673     1.59600
O586        O  0.46344570  0.67050680  0.28335663    -0.80000
O587        O  0.47499424  0.67266059  0.40035100    -1.90500
Cd588      Cd  0.01534718  0.65885579  0.43698507     1.59900
O589        O  0.45029652  0.72197357  0.31394888    -0.80000
O590        O  0.00548953  0.63213734  0.50418804    -0.78600
C591        C  0.42598368  0.73155888  0.47360589     0.83900
C592        C  0.39205052  0.64131417  0.38305539     0.83600
O593        O  0.45205239  0.62547335  0.48209393    -0.77600
C594        C  0.02000914  0.59262031  0.38580181     0.84400
O595        O  0.44423587  0.70734436  0.48897811    -0.77700
C596        C  0.45212899  0.70102716  0.27850828     0.84500
C597        C  0.04867053  0.72502308  0.39672555     0.84800
O598        O  0.02099956  0.73855096  0.38109931    -0.80100
O599        O  0.34784955  0.61087825  0.09273725    -0.77600
C600        C  0.39482876  0.53281262  0.00251602     0.83400
O601        O  0.26616915  0.57831635  0.07756195    -0.78700
O602        O  0.31261653  0.96110923  0.08649003    -0.80200
O603        O  0.41450405  0.51809217  0.14763320    -0.80000
O604        O  0.38264166  0.59644246  0.15346476    -0.78600
Zn605      Zn  0.34289063  0.56694830  0.06198697     1.55700
O606        O  0.39221533  0.97486454  0.10615735    -0.80000
Cd607      Cd  0.36926774  0.54641217  0.16130196     1.59700
Cd608      Cd  0.28889099  0.54038620  0.12492564     1.59600
O609        O  0.33989882  0.54691714  0.22559154    -0.80000
O610        O  0.33770438  0.53542013  0.10854973    -1.90500
Cd611      Cd  0.35155828  0.99500458  0.07206814     1.59900
O612        O  0.28842780  0.56008716  0.19505433    -0.80000
O613        O  0.37834406  0.00477678  0.00487896    -0.78600
C614        C  0.27866502  0.58436482  0.03540260     0.83900
C615        C  0.36901141  0.61838760  0.12574795     0.83600
O616        O  0.38476855  0.55831890  0.02660202    -0.77600
C617        C  0.41778311  0.99048823  0.12323241     0.84400
O618        O  0.30286760  0.56612406  0.01995758    -0.77700
C619        C  0.30938540  0.55823825  0.23047701     0.84500
C620        C  0.28538876  0.96168769  0.11239100     0.84800
O621        O  0.27185088  0.98936773  0.12796845    -0.80100
O622        O  0.35038064  0.60821850  0.41597537    -0.77600
C623        C  0.27241177  0.65526558  0.50643834     0.83400
O624        O  0.31787178  0.52669983  0.43151762    -0.78700
O625        O  0.20067009  0.57302529  0.42265958    -0.80200
O626        O  0.25745369  0.67493491  0.36135879    -0.80000
O627        O  0.33586903  0.64319329  0.35551286    -0.78600
Zn628      Zn  0.30647703  0.60340068  0.44685994     1.55700
O629        O  0.21436773  0.65266980  0.40318897    -0.80000
Cd630      Cd  0.28585347  0.62974374  0.34768396     1.59700
Cd631      Cd  0.27992643  0.54934713  0.38410259     1.59600
O632        O  0.28642231  0.60035027  0.28341955    -0.80000
O633        O  0.27490934  0.59815706  0.40041142    -1.90500
Cd634      Cd  0.23456509  0.61195766  0.43706494     1.59900
O635        O  0.29962827  0.54888805  0.31397007    -0.80000
O636        O  0.24444418  0.63865206  0.50427779    -0.78600
C637        C  0.32390453  0.53924697  0.47365038     0.83900
C638        C  0.35785511  0.62946700  0.38306531     0.83600
O639        O  0.29786999  0.64533693  0.48212931    -0.77600
C640        C  0.22990578  0.67821939  0.38589638     0.84400
O641        O  0.30565173  0.56346112  0.48902466    -0.77700
C642        C  0.29776920  0.56984475  0.27854451     0.84500
C643        C  0.20123892  0.54581433  0.39672507     0.84800
O644        O  0.22891256  0.53228644  0.38110428    -0.80100
O645        O  0.14952262  0.85835931  0.09293048    -0.77600
C646        C  0.22756410  0.90535917  0.00262716     0.83400
O647        O  0.18205487  0.77672745  0.07759640    -0.78700
O648        O  0.29926238  0.82311207  0.08646330    -0.80200
O649        O  0.24239192  0.92500830  0.14773664    -0.80000
O650        O  0.16400146  0.89324903  0.15351975    -0.78600
Zn651      Zn  0.19344310  0.85344883  0.06213299     1.55700
O652        O  0.28557037  0.90270191  0.10616808    -0.80000
Cd653      Cd  0.21401050  0.87980050  0.16140435     1.59700
Cd654      Cd  0.22000038  0.79940901  0.12497467     1.59600
O655        O  0.21342340  0.85039452  0.22567331    -0.80000
O656        O  0.22498407  0.84822864  0.10865568    -1.90500
Cd657      Cd  0.26537644  0.86206065  0.07211088     1.59900
O658        O  0.20030177  0.79891736  0.19509984    -0.80000
O659        O  0.25557554  0.88883088  0.00492944    -0.78600
C660        C  0.17601254  0.78925294  0.03545548     0.83900
C661        C  0.14203591  0.87958051  0.12587338     0.83600
O662        O  0.20207092  0.89534846  0.02678802    -0.77600
C663        C  0.26998180  0.92827431  0.12329359     0.84400
O664        O  0.19426345  0.81345885  0.02004778    -0.77700
C665        C  0.20212096  0.81986998  0.23053314     0.84500
C666        C  0.29869326  0.79588912  0.11236868     0.84800
O667        O  0.27101862  0.78235579  0.12797709    -0.80100
O668        O  0.15205195  0.86082449  0.41621335    -0.77600
C669        C  0.10507262  0.78280692  0.50654676     0.83400
O670        O  0.23369832  0.82826893  0.43150730    -0.78700
O671        O  0.18726764  0.71107716  0.42264122    -0.80200
O672        O  0.08538498  0.76799586  0.36139592    -0.80000
O673        O  0.11721305  0.84636831  0.35555452    -0.78600
Zn674      Zn  0.15697045  0.81690774  0.44700524     1.55700
O675        O  0.10764652  0.72483756  0.40305956    -0.80000
Cd676      Cd  0.13061226  0.79634206  0.34773180     1.59700
Cd677      Cd  0.21099509  0.79033355  0.38413105     1.59600
O678        O  0.15999680  0.79689510  0.28345460    -0.80000
O679        O  0.16217936  0.78536436  0.40048285    -1.90500
Cd680      Cd  0.14833931  0.74498385  0.43704717     1.59900
O681        O  0.21146651  0.81005344  0.31401184    -0.80000
O682        O  0.12160687  0.75479787  0.50426328    -0.78600
C683        C  0.22117882  0.83432825  0.47364923     0.83900
C684        C  0.13087316  0.86832534  0.38322337     0.83600
O685        O  0.11507713  0.80828903  0.48236073    -0.77600
C686        C  0.08209357  0.74042324  0.38586895     0.84400
O687        O  0.19696654  0.81609230  0.48907429    -0.77700
C688        C  0.19050768  0.80822970  0.27858730     0.84500
C689        C  0.21449237  0.71163888  0.39673409     0.84800
O690        O  0.22802841  0.73930922  0.38111623    -0.80100
O691        O  0.10037130  0.91267324  0.09293056    -0.77600
C692        C  0.02236087  0.86566040  0.00256755     0.83400
O693        O  0.06783258  0.49428147  0.07756739    -0.78700
O694        O  0.45063827  0.94788658  0.08640785    -0.80200
O695        O  0.50748178  0.84598279  0.14766974    -0.80000
O696        O  0.08586791  0.87775081  0.15346884    -0.78600
Zn697      Zn  0.05645883  0.91756541  0.06209559     1.55700
O698        O  0.46434481  0.86826229  0.10598274    -0.80000
Cd699      Cd  0.03585807  0.89118889  0.16132932     1.59700
Cd700      Cd  0.02989534  0.97158588  0.12495131     1.59600
O701        O  0.03643552  0.92056370  0.22561114    -0.80000
O702        O  0.02490371  0.92277330  0.10859802    -1.90500
Cd703      Cd  0.48453073  0.90894889  0.07201733     1.59900
O704        O  0.04960715  0.97203845  0.19507665    -0.80000
O705        O  0.49436127  0.88221200  0.00482268    -0.78600
C706        C  0.07387168  0.98176182  0.03542008     0.83900
C707        C  0.10784578  0.89144020  0.12586277     0.83600
O708        O  0.04784451  0.87565804  0.02675826    -0.77600
C709        C  0.47991156  0.84270314  0.12318939     0.84400
O710        O  0.05562194  0.95755579  0.02001208    -0.77700
C711        C  0.04777271  0.95107213  0.23049252     0.84500
C712        C  0.45120447  0.97510090  0.11233500     0.84800
O713        O  0.47887611  0.98863135  0.12795704    -0.80100
O714        O  0.09787268  0.91003608  0.41621762    -0.77600
C715        C  0.14486662  0.98807123  0.50649730     0.83400
O716        O  0.01623471  0.94257314  0.43149146    -0.78700
O717        O  0.06264897  0.55978157  0.42257492    -0.80200
O718        O  0.16453907  0.50283685  0.36138583    -0.80000
O719        O  0.13269127  0.92447313  0.35552058    -0.78600
Zn720      Zn  0.09295267  0.95395749  0.44699206     1.55700
O721        O  0.14225279  0.54603892  0.40292569    -0.80000
Cd722      Cd  0.11930815  0.97450539  0.34769901     1.59700
Cd723      Cd  0.03893206  0.98051243  0.38411581     1.59600
O724        O  0.08991820  0.97399448  0.28342564    -0.80000
O725        O  0.08774627  0.98549059  0.40045706    -1.90500
Cd726      Cd  0.10158919  0.52588745  0.43698355     1.59900
O727        O  0.03845363  0.96081662  0.31398978    -0.80000
O728        O  0.12835232  0.51609122  0.50418209    -0.78600
C729        C  0.02874783  0.93652588  0.47363880     0.83900
C730        C  0.11904109  0.90252530  0.38321602     0.83600
O731        O  0.13484361  0.96258061  0.48234500    -0.77600
C732        C  0.16781862  0.53042721  0.38582058     0.84400
O733        O  0.05295363  0.95477043  0.48906221    -0.77700
C734        C  0.05940313  0.96267168  0.27855569     0.84500
C735        C  0.03542295  0.55920662  0.39667416     0.84800
O736        O  0.02188749  0.53152875  0.38108511    -0.80100
O737        O  0.54783956  0.39530014  0.52673846    -0.77600
C738        C  0.60786211  0.37952273  0.62588634     0.83400
O739        O  0.56782571  0.27670193  0.57765066    -0.78700
O740        O  0.53640962  0.35043092  0.72566591    -0.80200
O741        O  0.96435441  0.40273356  0.60612151    -0.80000
O742        O  0.99433119  0.38880838  0.50489233    -0.78600
Zn743      Zn  0.55644726  0.35341281  0.56211433     1.55700
O744        O  0.00753917  0.42502626  0.64768987    -0.80000
Cd745      Cd  0.98451994  0.36206447  0.57209251     1.59700
Cd746      Cd  0.52987960  0.29941572  0.62500238     1.59600
O747        O  0.95063033  0.32311769  0.58645547    -0.80000
O748        O  0.52490363  0.34822692  0.60864126    -1.90500
Cd749      Cd  0.53587870  0.37980356  0.66138193     1.59900
O750        O  0.97885896  0.28237086  0.62800602    -0.80000
O751        O  0.58590536  0.39319532  0.65354506    -0.78600
C752        C  0.57386910  0.28920315  0.53549472     0.83900
C753        C  0.52235106  0.40532253  0.50258249     0.83600
O754        O  0.60036218  0.35832751  0.59291537    -0.77600
C755        C  0.97995425  0.42830107  0.62324418     0.84400
O756        O  0.55562022  0.31340237  0.52006456    -0.77700
C757        C  0.95119063  0.29589567  0.61236469     0.84500
C758        C  0.54774213  0.31992067  0.73054027     0.84800
O759        O  0.54958205  0.29896043  0.69511926    -0.80100
O760        O  0.63481707  0.30835592  0.98231835    -0.77600
C761        C  0.61903765  0.36838110  0.88323186     0.83400
O762        O  0.51621308  0.32839331  0.93150121    -0.78700
O763        O  0.58988086  0.29698373  0.78345701    -0.80200
O764        O  0.64219091  0.22487669  0.90301170    -0.80000
O765        O  0.62826688  0.25486562  0.00422015    -0.78600
Zn766      Zn  0.59291877  0.31698072  0.94698345     1.55700
O767        O  0.66447846  0.26802455  0.86135200    -0.80000
Cd768      Cd  0.60152168  0.24505589  0.93701988     1.59700
Cd769      Cd  0.53888532  0.29043499  0.88413936     1.59600
O770        O  0.56258205  0.21116726  0.92261323    -0.80000
O771        O  0.58769935  0.28543969  0.90046571    -1.90500
Cd772      Cd  0.61927449  0.29640732  0.84771974     1.59900
O773        O  0.52182412  0.23942072  0.88112013    -0.80000
O774        O  0.63271340  0.34641831  0.85558711    -0.78600
C775        C  0.52873683  0.33444539  0.97364013     0.83900
C776        C  0.64481157  0.28286904  0.00650174     0.83600
O777        O  0.59782528  0.36089058  0.91618304    -0.77600
C778        C  0.66775247  0.24044624  0.88581490     0.84400
O779        O  0.55292995  0.31618725  0.98906791    -0.77700
C780        C  0.53536000  0.21174245  0.89670602     0.84500
C781        C  0.55936598  0.30830683  0.77859485     0.84800
O782        O  0.53841019  0.31013904  0.81402297    -0.80100
O783        O  0.70208833  0.37556119  0.52674218    -0.77600
C784        C  0.64206070  0.39135778  0.62588243     0.83400
O785        O  0.68211567  0.99417910  0.57759716    -0.78700
O786        O  0.71350244  0.42046810  0.72565491    -0.80200
O787        O  0.78556235  0.36812198  0.60608979    -0.80000
O788        O  0.75559520  0.38205441  0.50488033    -0.78600
Zn789      Zn  0.69347743  0.41745655  0.56209928     1.55700
O790        O  0.74237754  0.34584509  0.64767889    -0.80000
Cd791      Cd  0.76540956  0.40880269  0.57207842     1.59700
Cd792      Cd  0.72005006  0.47146483  0.62496831     1.59600
O793        O  0.79931171  0.44773674  0.58647930    -0.80000
O794        O  0.72502193  0.42264937  0.60862189    -1.90500
Cd795      Cd  0.71404373  0.39107947  0.66137240     1.59900
O796        O  0.77107137  0.48849876  0.62798966    -0.80000
O797        O  0.66401754  0.37768721  0.65353891    -0.78600
C798        C  0.67606746  0.48166929  0.53544685     0.83900
C799        C  0.72757663  0.36553655  0.50258333     0.83600
O800        O  0.64956086  0.41254937  0.59290695    -0.77600
C801        C  0.76996002  0.34256005  0.62322388     0.84400
O802        O  0.69430418  0.45745597  0.52002756    -0.77700
C803        C  0.79874450  0.47496239  0.61238362     0.84500
C804        C  0.70218159  0.45098455  0.73052209     0.84800
O805        O  0.70034795  0.47193751  0.69509209    -0.80100
O806        O  0.61508845  0.46263970  0.98232593    -0.77600
C807        C  0.63087960  0.40257505  0.88323548     0.83400
O808        O  0.73370676  0.44259843  0.93152899    -0.78700
O809        O  0.66004279  0.47393886  0.78343416    -0.80200
O810        O  0.60773181  0.04610006  0.90288399    -0.80000
O811        O  0.62160527  0.01615071  0.00415024    -0.78600
Zn812      Zn  0.65698633  0.45399691  0.94698934     1.55700
O813        O  0.58543137  0.00291200  0.86133172    -0.80000
Cd814      Cd  0.64837582  0.02592667  0.93695761     1.59700
Cd815      Cd  0.71103057  0.48052848  0.88412352     1.59600
O816        O  0.68732289  0.05980791  0.92256828    -0.80000
O817        O  0.66221270  0.48552308  0.90044705    -1.90500
Cd818      Cd  0.63064543  0.47453985  0.84769849     1.59900
O819        O  0.72808695  0.03154403  0.88109418    -0.80000
O820        O  0.61721578  0.42453128  0.85557267    -0.78600
C821        C  0.72118040  0.43655988  0.97367256     0.83900
C822        C  0.60507682  0.48813957  0.00647005     0.83600
O823        O  0.65207086  0.41007369  0.91621040    -0.77600
C824        C  0.58216235  0.03050828  0.88575668     0.84400
O825        O  0.69697300  0.45480994  0.98907848    -0.77700
C826        C  0.71455075  0.05922549  0.89667160     0.84500
C827        C  0.69055844  0.46261523  0.77857632     0.84800
O828        O  0.71151406  0.46080076  0.81400606    -0.80100
O829        O  0.88487337  0.21249200  0.52691881    -0.77600
C830        C  0.86903513  0.15252423  0.62596423     0.83400
O831        O  0.76624292  0.19249047  0.57755507    -0.78700
O832        O  0.83988510  0.22394701  0.72563257    -0.80200
O833        O  0.89222954  0.29599219  0.60582184    -0.80000
O834        O  0.87818466  0.26591217  0.50475731    -0.78600
Zn835      Zn  0.84294245  0.20389236  0.56219823     1.55700
O836        O  0.91447922  0.25293529  0.64772886    -0.80000
Cd837      Cd  0.85149959  0.27580207  0.57198079     1.59700
Cd838      Cd  0.78888820  0.23045248  0.62494425     1.59600
O839        O  0.81256893  0.30970357  0.58640611    -0.80000
O840        O  0.83770313  0.23546418  0.60864598    -1.90500
Cd841      Cd  0.86929045  0.22452251  0.66137454     1.59900
O842        O  0.77181725  0.28146378  0.62793771    -0.78400
O843        O  0.88275892  0.17451211  0.65351940    -0.78600
C844        C  0.77879078  0.18645357  0.53542407     0.83900
C845        C  0.89479933  0.23794518  0.50260007     0.83600
O846        O  0.84777192  0.15999285  0.59307363    -0.77600
C847        C  0.91777077  0.28047193  0.62316945     0.84400
O848        O  0.80299923  0.20471141  0.52004349    -0.77700
C849        C  0.78535053  0.30913742  0.61232731     0.84500
C850        C  0.80937151  0.21261802  0.73049923     0.84800
O851        O  0.78841824  0.21076694  0.69507139    -0.80100
O852        O  0.79778547  0.12565081  0.98242225    -0.77600
C853        C  0.85786406  0.14140634  0.88327799     0.83400
O854        O  0.81779914  0.24424355  0.93144057    -0.78700
O855        O  0.78642730  0.17049711  0.78343938    -0.80200
O856        O  0.71431364  0.11822041  0.90277031    -0.80000
O857        O  0.74422877  0.13204842  0.00409596    -0.78600
Zn858      Zn  0.80641895  0.16752595  0.94703023     1.55700
O859        O  0.75756942  0.09590225  0.86139178    -0.80000
Cd860      Cd  0.73447100  0.15884562  0.93692054     1.59700
Cd861      Cd  0.77986152  0.22152049  0.88409162     1.59600
O862        O  0.70059176  0.19779973  0.92255606    -0.80000
O863        O  0.77489403  0.17270711  0.90046395    -1.90500
Cd864      Cd  0.78589583  0.14113461  0.84772415     1.59900
O865        O  0.72884313  0.23856376  0.88106605    -0.80000
O866        O  0.83592179  0.12775958  0.85557311    -0.78600
C867        C  0.82385132  0.23175037  0.97359819     0.83900
C868        C  0.77227190  0.11558019  0.00648556     0.83600
O869        O  0.85034945  0.16257394  0.91627967    -0.77600
C870        C  0.72994726  0.09263930  0.88575414     0.84400
O871        O  0.80560512  0.20755434  0.98905228    -0.77700
C872        C  0.70116663  0.22503006  0.89666592     0.84500
C873        C  0.79774732  0.20101093  0.77855788     0.84800
O874        O  0.79957337  0.22197747  0.81397326    -0.80100
O875        O  0.86503706  0.05833271  0.52691205    -0.77600
C876        C  0.88088645  0.11833127  0.62596246     0.83400
O877        O  0.98367700  0.07833835  0.57752345    -0.78700
O878        O  0.91003440  0.04695080  0.72565265    -0.80200
O879        O  0.85771734  0.47482846  0.60598107    -0.80000
O880        O  0.87168169  0.50488714  0.50483930    -0.78600
Zn881      Zn  0.90696797  0.06694501  0.56219110     1.55700
O882        O  0.83543867  0.01793564  0.64774644    -0.80000
Cd883      Cd  0.89840249  0.49503064  0.57203944     1.59700
Cd884      Cd  0.96102330  0.04040647  0.62495486     1.59600
O885        O  0.93734744  0.46114583  0.58641850    -0.80000
O886        O  0.91220947  0.03538813  0.60866046    -1.90500
Cd887      Cd  0.88062928  0.04634285  0.66139687     1.59900
O888        O  0.97808431  0.48939387  0.62796669    -0.80000
O889        O  0.86716612  0.09634917  0.65352983    -0.78600
C890        C  0.97112986  0.08436168  0.53538990     0.83900
C891        C  0.85508994  0.03286549  0.50263949     0.83600
O892        O  0.90213800  0.11085511  0.59305486    -0.77600
C893        C  0.83216121  0.49037642  0.62323459     0.84400
O894        O  0.94691277  0.06610775  0.52002987    -0.77700
C895        C  0.96455977  0.46171846  0.61234691     0.84500
C896        C  0.94054414  0.05829312  0.73050562     0.84800
O897        O  0.96149667  0.06012964  0.69507136    -0.80100
O898        O  0.95213001  0.14530863  0.98240758    -0.77600
C899        C  0.89206314  0.12957396  0.88327957     0.83400
O900        O  0.93210892  0.02670896  0.93145114    -0.78700
O901        O  0.96347755  0.10043961  0.78343102    -0.80200
O902        O  0.53559170  0.15275093  0.90285060    -0.80000
O903        O  0.50567053  0.13888175  0.00413158    -0.78600
Zn904      Zn  0.94349359  0.10343376  0.94702390     1.55700
O905        O  0.49236526  0.17505048  0.86139103    -0.80000
Cd906      Cd  0.51544022  0.11209840  0.93694118     1.59700
Cd907      Cd  0.97005166  0.04942800  0.88410067     1.59600
O908        O  0.54932715  0.07315282  0.92252544    -0.80000
O909        O  0.97502352  0.09824461  0.90046314    -1.90500
Cd910      Cd  0.96403181  0.12981794  0.84771839     1.59900
O911        O  0.52106872  0.03237981  0.88106418    -0.80000
O912        O  0.91401098  0.14321713  0.85557788    -0.78600
C913        C  0.92604964  0.03920791  0.97360485     0.83900
C914        C  0.97763562  0.15536711  0.00649437     0.83600
O915        O  0.89956954  0.10839945  0.91627309    -0.77600
C916        C  0.51996959  0.17832381  0.88579121     0.84400
O917        O  0.94428992  0.06340975  0.98905451    -0.77700
C918        C  0.54874841  0.04591915  0.89663911     0.84500
C919        C  0.95216611  0.06992032  0.77855940     0.84800
O920        O  0.95034583  0.04896071  0.81398253    -0.80100
O921        O  0.90203374  0.16008494  0.09274880    -0.77600
C922        C  0.85507146  0.23814337  0.00250675     0.83400
O923        O  0.98373914  0.19264821  0.07755780    -0.78700
O924        O  0.93727668  0.30984973  0.08643321    -0.80200
O925        O  0.83539415  0.25289527  0.14766292    -0.80000
O926        O  0.86722001  0.17453500  0.15344844    -0.78600
Zn927      Zn  0.90700415  0.20400904  0.06198878     1.55700
O928        O  0.85767965  0.29610296  0.10613866    -0.80000
Cd929      Cd  0.88062520  0.22455499  0.16130519     1.59700
Cd930      Cd  0.96101068  0.23058284  0.12491507     1.59600
O931        O  0.91000067  0.22399097  0.22558879    -0.80000
O932        O  0.91219269  0.23554260  0.10854769    -1.90500
Cd933      Cd  0.89833569  0.27595221  0.07205354     1.59900
O934        O  0.96147907  0.21086105  0.19503384    -0.80000
O935        O  0.87155667  0.26617823  0.00486676    -0.78600
C936        C  0.97123857  0.18658603  0.03540719     0.83900
C937        C  0.88085666  0.15258369  0.12574555     0.83600
O938        O  0.86512946  0.21263852  0.02659507    -0.77600
C939        C  0.83211391  0.28049269  0.12324785     0.84400
O940        O  0.94703246  0.20482069  0.01996242    -0.77700
C941        C  0.94051570  0.21266989  0.23045665     0.84500
C942        C  0.96450332  0.30928359  0.11233178     0.84800
O943        O  0.97804021  0.28161055  0.12793661    -0.80100
O944        O  0.89952930  0.16255812  0.41596802    -0.77600
C945        C  0.97751512  0.11553810  0.50638223     0.83400
O946        O  0.93202570  0.24411400  0.43148159    -0.78700
O947        O  0.54923411  0.19780251  0.42263583    -0.80200
O948        O  0.49245194  0.09589311  0.36128548    -0.80000
O949        O  0.91403051  0.12760692  0.35546871    -0.78600
Zn950      Zn  0.94343455  0.16740203  0.44681676     1.55700
O951        O  0.53555881  0.11818077  0.40303750    -0.80000
Cd952      Cd  0.96404134  0.14108227  0.34760858     1.59700
Cd953      Cd  0.96998578  0.22147915  0.38407673     1.59600
O954        O  0.96344562  0.17050677  0.28335662    -0.80000
O955        O  0.97499430  0.17266069  0.40035103    -1.90500
Cd956      Cd  0.51534732  0.15885579  0.43698506     1.59900
O957        O  0.95029661  0.22197359  0.31394885    -0.80000
O958        O  0.50548952  0.13213750  0.50418815    -0.78600
C959        C  0.92598366  0.23155889  0.47360586     0.83900
C960        C  0.89205055  0.14131418  0.38305527     0.83600
O961        O  0.95205245  0.12547336  0.48209382    -0.77600
C962        C  0.52000926  0.09262032  0.38580181     0.84400
O963        O  0.94423581  0.20734434  0.48897812    -0.77700
C964        C  0.95212899  0.20102715  0.27850827     0.84500
C965        C  0.54867057  0.22502310  0.39672553     0.84800
O966        O  0.52099958  0.23855095  0.38109931    -0.80100
O967        O  0.84784950  0.11087826  0.09273727    -0.77600
C968        C  0.89482874  0.03281263  0.00251601     0.83400
O969        O  0.76616912  0.07831633  0.07756189    -0.78700
O970        O  0.81261652  0.46110927  0.08649001    -0.80200
O971        O  0.91450399  0.01809217  0.14763320    -0.80000
O972        O  0.88264162  0.09644246  0.15346477    -0.78600
Zn973      Zn  0.84289057  0.06694830  0.06198698     1.55700
O974        O  0.89221545  0.47486452  0.10615733    -0.80000
Cd975      Cd  0.86926767  0.04641217  0.16130196     1.59700
Cd976      Cd  0.78889092  0.04038621  0.12492564     1.59600
O977        O  0.83989881  0.04691717  0.22559154    -0.80000
O978        O  0.83770435  0.03542014  0.10854974    -1.90500
Cd979      Cd  0.85155841  0.49500457  0.07206815     1.59900
O980        O  0.78842776  0.06008713  0.19505435    -0.80000
O981        O  0.87834411  0.50477678  0.00487895    -0.78600
C982        C  0.77866507  0.08436483  0.03540259     0.83900
C983        C  0.86901139  0.11838759  0.12574793     0.83600
O984        O  0.88476850  0.05831891  0.02660198    -0.77600
C985        C  0.91778320  0.49048823  0.12323240     0.84400
O986        O  0.80286766  0.06612409  0.01995762    -0.77700
C987        C  0.80938537  0.05823823  0.23047702     0.84500
C988        C  0.78538873  0.46168771  0.11239099     0.84800
O989        O  0.77185082  0.48936773  0.12796844    -0.80100
O990        O  0.85038068  0.10821850  0.41597537    -0.77600
C991        C  0.77241176  0.15526557  0.50643835     0.83400
O992        O  0.81787171  0.02669982  0.43151765    -0.78700
O993        O  0.70067004  0.07302530  0.42265957    -0.80200
O994        O  0.75745375  0.17493489  0.36135870    -0.80000
O995        O  0.83586903  0.14319329  0.35551290    -0.78600
Zn996      Zn  0.80647699  0.10340068  0.44685994     1.55700
O997        O  0.71436782  0.15266982  0.40318899    -0.80000
Cd998      Cd  0.78585360  0.12974374  0.34768396     1.59700
Cd999      Cd  0.77992635  0.04934713  0.38410259     1.59600
O1000       O  0.78642244  0.10035030  0.28341955    -0.80000
O1001       O  0.77490938  0.09815706  0.40041143    -1.90500
Cd1002     Cd  0.73456503  0.11195766  0.43706494     1.59900
O1003       O  0.79962817  0.04888802  0.31397006    -0.80000
O1004       O  0.74444414  0.13865207  0.50427780    -0.78600
C1005       C  0.82390454  0.03924696  0.47365040     0.83900
C1006       C  0.85785513  0.12946698  0.38306526     0.83600
O1007       O  0.79786995  0.14533692  0.48212930    -0.77600
C1008       C  0.72990589  0.17821940  0.38589638     0.84400
O1009       O  0.80565181  0.06346116  0.48902469    -0.77700
C1010       C  0.79776919  0.06984473  0.27854451     0.84500
C1011       C  0.70123890  0.04581434  0.39672507     0.84800
O1012       O  0.72891253  0.03228646  0.38110428    -0.80100
O1013       O  0.64952268  0.35835932  0.09293050    -0.77600
C1014       C  0.72756415  0.40535917  0.00262715     0.83400
O1015       O  0.68205478  0.27672746  0.07759643    -0.78700
O1016       O  0.79926240  0.32311209  0.08646331    -0.80200
O1017       O  0.74239198  0.42500828  0.14773672    -0.80000
O1018       O  0.66400150  0.39324906  0.15351974    -0.78600
Zn1019     Zn  0.69344305  0.35344883  0.06213298     1.55700
O1020       O  0.78557037  0.40270190  0.10616803    -0.80000
Cd1021     Cd  0.71401044  0.37980050  0.16140435     1.59700
Cd1022     Cd  0.72000030  0.29940901  0.12497466     1.59600
O1023       O  0.71342329  0.35039455  0.22567331    -0.80000
O1024       O  0.72498398  0.34822864  0.10865568    -1.90500
Cd1025     Cd  0.76537637  0.36206065  0.07211088     1.59900
O1026       O  0.70030186  0.29891733  0.19509988    -0.80000
O1027       O  0.75557561  0.38883090  0.00492943    -0.78600
C1028       C  0.67601252  0.28925293  0.03545551     0.83900
C1029       C  0.64203595  0.37958053  0.12587339     0.83600
O1030       O  0.70207100  0.39534845  0.02678804    -0.77600
C1031       C  0.76998183  0.42827429  0.12329360     0.84400
O1032       O  0.69426352  0.31345880  0.02004781    -0.77700
C1033       C  0.70212092  0.31986998  0.23053314     0.84500
C1034       C  0.79869322  0.29588913  0.11236868     0.84800
O1035       O  0.77101855  0.28235583  0.12797704    -0.80100
O1036       O  0.65205211  0.36082451  0.41621335    -0.77600
C1037       C  0.60507266  0.28280692  0.50654671     0.83400
O1038       O  0.73369829  0.32826897  0.43150726    -0.78700
O1039       O  0.68726779  0.21107718  0.42264122    -0.80200
O1040       O  0.58538507  0.26799587  0.36139590    -0.80000
O1041       O  0.61721322  0.34636832  0.35555453    -0.78600
Zn1042     Zn  0.65697059  0.31690774  0.44700525     1.55700
O1043       O  0.60764654  0.22483756  0.40305963    -0.80000
Cd1044     Cd  0.63061239  0.29634206  0.34773181     1.59700
Cd1045     Cd  0.71099522  0.29033354  0.38413105     1.59600
O1046       O  0.65999675  0.29689510  0.28345457    -0.80000
O1047       O  0.66217944  0.28536435  0.40048285    -1.90500
Cd1048     Cd  0.64833944  0.24498385  0.43704717     1.59900
O1049       O  0.71146644  0.31005344  0.31401182    -0.80000
O1050       O  0.62160697  0.25479789  0.50426329    -0.78600
C1051       C  0.72117883  0.33432827  0.47364922     0.83900
C1052       C  0.63087330  0.36832535  0.38322340     0.83600
O1053       O  0.61507722  0.30828905  0.48236074    -0.77600
C1054       C  0.58209361  0.24042325  0.38586896     0.84400
O1055       O  0.69696661  0.31609225  0.48907435    -0.77700
C1056       C  0.69050761  0.30822971  0.27858728     0.84500
C1057       C  0.71449251  0.21163888  0.39673411     0.84800
O1058       O  0.72802857  0.23930922  0.38111623    -0.80100
O1059       O  0.60037125  0.41267323  0.09293056    -0.77600
C1060       C  0.52236081  0.36566038  0.00256757     0.83400
O1061       O  0.56783248  0.99428151  0.07756736    -0.78700
O1062       O  0.95063835  0.44788660  0.08640785    -0.80200
O1063       O  0.00748183  0.34598278  0.14766979    -0.80000
O1064       O  0.58586787  0.37775080  0.15346884    -0.78600
Zn1065     Zn  0.55645875  0.41756541  0.06209560     1.55700
O1066       O  0.96434489  0.36826228  0.10598272    -0.80000
Cd1067     Cd  0.53585798  0.39118889  0.16132932     1.59700
Cd1068     Cd  0.52989528  0.47158589  0.12495131     1.59600
O1069       O  0.53643546  0.42056368  0.22561115    -0.80000
O1070       O  0.52490363  0.42277331  0.10859801    -1.90500
Cd1071     Cd  0.98453067  0.40894889  0.07201732     1.59900
O1072       O  0.54960728  0.47203838  0.19507663    -0.80000
O1073       O  0.99436130  0.38221203  0.00482266    -0.78600
C1074       C  0.57387178  0.48176180  0.03542010     0.83900
C1075       C  0.60784576  0.39144019  0.12586278     0.83600
O1076       O  0.54784443  0.37565804  0.02675827    -0.77600
C1077       C  0.97991168  0.34270312  0.12318931     0.84400
O1078       O  0.55562206  0.45755578  0.02001208    -0.77700
C1079       C  0.54777282  0.45107205  0.23049251     0.84500
C1080       C  0.95120455  0.47510092  0.11233501     0.84800
O1081       O  0.97887615  0.48863138  0.12795708    -0.80100
O1082       O  0.59787266  0.41003604  0.41621759    -0.77600
C1083       C  0.64486654  0.48807120  0.50649729     0.83400
O1084       O  0.51623464  0.44257315  0.43149152    -0.78700
O1085       O  0.56264893  0.05978154  0.42257495    -0.80200
O1086       O  0.66453917  0.00283683  0.36138583    -0.80000
O1087       O  0.63269123  0.42447315  0.35552057    -0.78600
Zn1088     Zn  0.59295260  0.45395748  0.44699204     1.55700
O1089       O  0.64225283  0.04603889  0.40292571    -0.80000
Cd1090     Cd  0.61930807  0.47450539  0.34769902     1.59700
Cd1091     Cd  0.53893200  0.48051243  0.38411581     1.59600
O1092       O  0.58991826  0.47399445  0.28342565    -0.80000
O1093       O  0.58774627  0.48549059  0.40045707    -1.90500
Cd1094     Cd  0.60158913  0.02588745  0.43698355     1.59900
O1095       O  0.53845365  0.46081663  0.31398972    -0.80000
O1096       O  0.62835241  0.01609124  0.50418205    -0.78600
C1097       C  0.52874784  0.43652589  0.47363885     0.83900
C1098       C  0.61904114  0.40252530  0.38321606     0.83600
O1099       O  0.63484354  0.46258060  0.48234499    -0.77600
C1100       C  0.66781867  0.03042720  0.38582057     0.84400
O1101       O  0.55295365  0.45477041  0.48906217    -0.77700
C1102       C  0.55940321  0.46267163  0.27855567     0.84500
C1103       C  0.53542293  0.05920661  0.39667418     0.84800
O1104       O  0.52188743  0.03152875  0.38108512    -0.80100
O1105       O  0.54783943  0.89530013  0.52673848    -0.77600
C1106       C  0.60786208  0.87952274  0.62588634     0.83400
O1107       O  0.56782575  0.77670193  0.57765070    -0.78700
O1108       O  0.53640963  0.85043092  0.72566591    -0.80200
O1109       O  0.96435447  0.90273356  0.60612152    -0.80000
O1110       O  0.99433115  0.88880840  0.50489236    -0.78600
Zn1111     Zn  0.55644731  0.85341281  0.56211433     1.55700
O1112       O  0.00753921  0.92502628  0.64768987    -0.80000
Cd1113     Cd  0.98452000  0.86206447  0.57209251     1.59700
Cd1114     Cd  0.52987965  0.79941571  0.62500238     1.59600
O1115       O  0.95063036  0.82311769  0.58645547    -0.80000
O1116       O  0.52490368  0.84822691  0.60864124    -1.90500
Cd1117     Cd  0.53587855  0.87980355  0.66138193     1.59900
O1118       O  0.97885892  0.78237085  0.62800603    -0.80000
O1119       O  0.58590530  0.89319531  0.65354506    -0.78600
C1120       C  0.57386912  0.78920316  0.53549475     0.83900
C1121       C  0.52235098  0.90532252  0.50258241     0.83600
O1122       O  0.60036220  0.85832752  0.59291537    -0.77600
C1123       C  0.97995430  0.92830108  0.62324417     0.84400
O1124       O  0.55562025  0.81340238  0.52006459    -0.77700
C1125       C  0.95119060  0.79589567  0.61236468     0.84500
C1126       C  0.54774212  0.81992066  0.73054028     0.84800
O1127       O  0.54958207  0.79896043  0.69511926    -0.80100
O1128       O  0.63481694  0.80835593  0.98231842    -0.77600
C1129       C  0.61903771  0.86838110  0.88323186     0.83400
O1130       O  0.51621310  0.82839333  0.93150123    -0.78700
O1131       O  0.58988090  0.79698374  0.78345699    -0.80200
O1132       O  0.64219078  0.72487670  0.90301167    -0.80000
O1133       O  0.62826691  0.75486558  0.00422010    -0.78600
Zn1134     Zn  0.59291863  0.81698091  0.94698344     1.55700
O1135       O  0.66447845  0.76802453  0.86135202    -0.80000
Cd1136     Cd  0.60152152  0.74505590  0.93701990     1.59700
Cd1137     Cd  0.53888518  0.79043499  0.88413936     1.59600
O1138       O  0.56258207  0.71116724  0.92261324    -0.80000
O1139       O  0.58769929  0.78543974  0.90046571    -1.90500
Cd1140     Cd  0.61927455  0.79640732  0.84771973     1.59900
O1141       O  0.52182415  0.73942069  0.88112013    -0.80000
O1142       O  0.63271347  0.84641831  0.85558712    -0.78600
C1143       C  0.52873684  0.83444541  0.97364013     0.83900
C1144       C  0.64481154  0.78286903  0.00650173     0.83600
O1145       O  0.59782533  0.86089064  0.91618303    -0.77600
C1146       C  0.66775239  0.74044621  0.88581493     0.84400
O1147       O  0.55292996  0.81618727  0.98906793    -0.77700
C1148       C  0.53536005  0.71174244  0.89670600     0.84500
C1149       C  0.55936602  0.80830683  0.77859485     0.84800
O1150       O  0.53841022  0.81013903  0.81402299    -0.80100
O1151       O  0.70208839  0.87556119  0.52674219    -0.77600
C1152       C  0.64206069  0.89135779  0.62588244     0.83400
O1153       O  0.68211559  0.49417910  0.57759717    -0.78700
O1154       O  0.71350229  0.92046808  0.72565489    -0.80200
O1155       O  0.78556237  0.86812196  0.60608985    -0.80000
O1156       O  0.75559526  0.88205439  0.50488032    -0.78600
Zn1157     Zn  0.69347747  0.91745655  0.56209927     1.55700
O1158       O  0.74237748  0.84584509  0.64767882    -0.80000
Cd1159     Cd  0.76540961  0.90880269  0.57207843     1.59700
Cd1160     Cd  0.72005011  0.97146483  0.62496832     1.59600
O1161       O  0.79931175  0.94773674  0.58647923    -0.80000
O1162       O  0.72502189  0.92264937  0.60862187    -1.90500
Cd1163     Cd  0.71404376  0.89107947  0.66137240     1.59900
O1164       O  0.77107140  0.98849875  0.62798961    -0.80000
O1165       O  0.66401755  0.87768721  0.65353890    -0.78600
C1166       C  0.67606754  0.98166928  0.53544685     0.83900
C1167       C  0.72757668  0.86553653  0.50258335     0.83600
O1168       O  0.64956087  0.91254937  0.59290693    -0.77600
C1169       C  0.76996000  0.84256006  0.62322386     0.84400
O1170       O  0.69430426  0.95745596  0.52002756    -0.77700
C1171       C  0.79874453  0.97496240  0.61238351     0.84500
C1172       C  0.70218148  0.95098455  0.73052208     0.84800
O1173       O  0.70034781  0.97193750  0.69509207    -0.80100
O1174       O  0.61508837  0.96263971  0.98232590    -0.77600
C1175       C  0.63087961  0.90257505  0.88323545     0.83400
O1176       O  0.73370680  0.94259845  0.93152905    -0.78700
O1177       O  0.66004279  0.97393887  0.78343424    -0.80200
O1178       O  0.60773183  0.54610005  0.90288400    -0.80000
O1179       O  0.62160532  0.51615072  0.00415022    -0.78600
Zn1180     Zn  0.65698635  0.95399691  0.94698933     1.55700
O1181       O  0.58543142  0.50291198  0.86133172    -0.80000
Cd1182     Cd  0.64837587  0.52592666  0.93695761     1.59700
Cd1183     Cd  0.71103063  0.98052848  0.88412351     1.59600
O1184       O  0.68732284  0.55980792  0.92256820    -0.80000
O1185       O  0.66221271  0.98552308  0.90044702    -1.90500
Cd1186     Cd  0.63064529  0.97453984  0.84769849     1.59900
O1187       O  0.72808696  0.53154403  0.88109423    -0.80000
O1188       O  0.61721567  0.92453127  0.85557275    -0.78600
C1189       C  0.72118036  0.93655989  0.97367259     0.83900
C1190       C  0.60507675  0.98813958  0.00647007     0.83600
O1191       O  0.65207091  0.91007371  0.91621032    -0.77600
C1192       C  0.58216238  0.53050826  0.88575667     0.84400
O1193       O  0.69697294  0.95480992  0.98907845    -0.77700
C1194       C  0.71455073  0.55922549  0.89667162     0.84500
C1195       C  0.69055844  0.96261524  0.77857634     0.84800
O1196       O  0.71151411  0.96080076  0.81400603    -0.80100
O1197       O  0.88487337  0.71249199  0.52691877    -0.77600
C1198       C  0.86903507  0.65252422  0.62596422     0.83400
O1199       O  0.76624284  0.69249051  0.57755504    -0.78700
O1200       O  0.83988508  0.72394705  0.72563257    -0.80200
O1201       O  0.89222944  0.79599217  0.60582187    -0.80000
O1202       O  0.87818470  0.76591217  0.50475729    -0.78600
Zn1203     Zn  0.84294233  0.70389236  0.56219823     1.55700
O1204       O  0.91447922  0.75293529  0.64772884    -0.80000
Cd1205     Cd  0.85149944  0.77580206  0.57198076     1.59700
Cd1206     Cd  0.78888824  0.73045248  0.62494424     1.59600
O1207       O  0.81256887  0.80970357  0.58640618    -0.80000
O1208       O  0.83770314  0.73546418  0.60864600    -1.90500
Cd1209     Cd  0.86929049  0.72452251  0.66137455     1.59900
O1210       O  0.77181714  0.78146378  0.62793765    -0.78400
O1211       O  0.88275878  0.67451210  0.65351946    -0.78600
C1212       C  0.77879077  0.68645358  0.53542405     0.83900
C1213       C  0.89479934  0.73794518  0.50260000     0.83600
O1214       O  0.84777190  0.65999283  0.59307355    -0.77600
C1215       C  0.91777072  0.78047194  0.62316943     0.84400
O1216       O  0.80299921  0.70471139  0.52004352    -0.77700
C1217       C  0.78535043  0.80913740  0.61232733     0.84500
C1218       C  0.80937151  0.71261802  0.73049923     0.84800
O1219       O  0.78841825  0.71076692  0.69507137    -0.80100
O1220       O  0.79778542  0.62565079  0.98242222    -0.77600
C1221       C  0.85786407  0.64140632  0.88327802     0.83400
O1222       O  0.81779897  0.74424356  0.93144060    -0.78700
O1223       O  0.78642735  0.67049708  0.78343938    -0.80200
O1224       O  0.71431365  0.61822041  0.90277036    -0.80000
O1225       O  0.74422875  0.63204843  0.00409600    -0.78600
Zn1226     Zn  0.80641900  0.66752594  0.94703023     1.55700
O1227       O  0.75756934  0.59590223  0.86139171    -0.80000
Cd1228     Cd  0.73447106  0.65884562  0.93692054     1.59700
Cd1229     Cd  0.77986135  0.72152049  0.88409162     1.59600
O1230       O  0.70059177  0.69779971  0.92255608    -0.80000
O1231       O  0.77489405  0.67270711  0.90046397    -1.90500
Cd1232     Cd  0.78589569  0.64113460  0.84772414     1.59900
O1233       O  0.72884301  0.73856378  0.88106603    -0.80000
O1234       O  0.83592177  0.62775959  0.85557312    -0.78600
C1235       C  0.82385122  0.73175037  0.97359821     0.83900
C1236       C  0.77227188  0.61558017  0.00648554     0.83600
O1237       O  0.85034950  0.66257395  0.91627969    -0.77600
C1238       C  0.72994724  0.59263929  0.88575417     0.84400
O1239       O  0.80560499  0.70755436  0.98905231    -0.77700
C1240       C  0.70116656  0.72503006  0.89666593     0.84500
C1241       C  0.79774730  0.70101092  0.77855788     0.84800
O1242       O  0.79957321  0.72197749  0.81397325    -0.80100
O1243       O  0.86503705  0.55833272  0.52691202    -0.77600
C1244       C  0.88088647  0.61833128  0.62596247     0.83400
O1245       O  0.98367703  0.57833832  0.57752340    -0.78700
O1246       O  0.91003446  0.54695080  0.72565265    -0.80200
O1247       O  0.85771733  0.97482847  0.60598102    -0.80000
O1248       O  0.87168180  0.00488716  0.50483925    -0.78600
Zn1249     Zn  0.90696783  0.56694501  0.56219111     1.55700
O1250       O  0.83543871  0.51793565  0.64774646    -0.80000
Cd1251     Cd  0.89840254  0.99503063  0.57203945     1.59700
Cd1252     Cd  0.96102335  0.54040647  0.62495486     1.59600
O1253       O  0.93734750  0.96114583  0.58641850    -0.80000
O1254       O  0.91220950  0.53538813  0.60866044    -1.90500
Cd1255     Cd  0.88062935  0.54634285  0.66139687     1.59900
O1256       O  0.97808436  0.98939388  0.62796669    -0.80000
O1257       O  0.86716617  0.59634915  0.65352984    -0.78600
C1258       C  0.97112981  0.58436165  0.53538988     0.83900
C1259       C  0.85508991  0.53286552  0.50263948     0.83600
O1260       O  0.90213802  0.61085513  0.59305487    -0.77600
C1261       C  0.83216119  0.99037643  0.62323454     0.84400
O1262       O  0.94691266  0.56610777  0.52002993    -0.77700
C1263       C  0.96455983  0.96171846  0.61234690     0.84500
C1264       C  0.94054421  0.55829312  0.73050562     0.84800
O1265       O  0.96149673  0.56012964  0.69507136    -0.80100
O1266       O  0.95212992  0.64530864  0.98240760    -0.77600
C1267       C  0.89206315  0.62957395  0.88327957     0.83400
O1268       O  0.93210886  0.52670903  0.93145107    -0.78700
O1269       O  0.96347762  0.60043961  0.78343102    -0.80200
O1270       O  0.53559176  0.65275092  0.90285061    -0.80000
O1271       O  0.50567043  0.63888174  0.00413157    -0.78600
Zn1272     Zn  0.94349363  0.60343377  0.94702391     1.55700
O1273       O  0.49236532  0.67505048  0.86139103    -0.80000
Cd1274     Cd  0.51544026  0.61209840  0.93694118     1.59700
Cd1275     Cd  0.97005170  0.54942819  0.88410067     1.59600
O1276       O  0.54932720  0.57315281  0.92252544    -0.80000
O1277       O  0.97502349  0.59824469  0.90046317    -1.90500
Cd1278     Cd  0.96403185  0.62981795  0.84771839     1.59900
O1279       O  0.52106876  0.53237982  0.88106417    -0.80000
O1280       O  0.91401096  0.64321713  0.85557782    -0.78600
C1281       C  0.92604961  0.53920791  0.97360484     0.83900
C1282       C  0.97763553  0.65536712  0.00649435     0.83600
O1283       O  0.89956959  0.60839945  0.91627309    -0.77600
C1284       C  0.51996966  0.67832381  0.88579120     0.84400
O1285       O  0.94428984  0.56340978  0.98905450    -0.77700
C1286       C  0.54874846  0.54591915  0.89663912     0.84500
C1287       C  0.95216618  0.56992033  0.77855940     0.84800
O1288       O  0.95034590  0.54896073  0.81398254    -0.80100
O1289       O  0.90203381  0.66008494  0.09274880    -0.77600
C1290       C  0.85507145  0.73814336  0.00250672     0.83400
O1291       O  0.98373904  0.69264819  0.07755779    -0.78700
O1292       O  0.93727668  0.80984972  0.08643326    -0.80200
O1293       O  0.83539421  0.75289527  0.14766292    -0.80000
O1294       O  0.86722007  0.67453500  0.15344844    -0.78600
Zn1295     Zn  0.90700420  0.70400904  0.06198879     1.55700
O1296       O  0.85767972  0.79610296  0.10613866    -0.80000
Cd1297     Cd  0.88062525  0.72455499  0.16130518     1.59700
Cd1298     Cd  0.96101073  0.73058284  0.12491508     1.59600
O1299       O  0.91000065  0.72399093  0.22558879    -0.80000
O1300       O  0.91219276  0.73554260  0.10854769    -1.90500
Cd1301     Cd  0.89833575  0.77595220  0.07205353     1.59900
O1302       O  0.96147908  0.71086107  0.19503386    -0.80000
O1303       O  0.87155670  0.76617821  0.00486674    -0.78600
C1304       C  0.97123849  0.68658604  0.03540715     0.83900
C1305       C  0.88085673  0.65258369  0.12574555     0.83600
O1306       O  0.86512948  0.71263852  0.02659505    -0.77600
C1307       C  0.83211398  0.78049269  0.12324785     0.84400
O1308       O  0.94703238  0.70482068  0.01996239    -0.77700
C1309       C  0.94051569  0.71266989  0.23045665     0.84500
C1310       C  0.96450328  0.80928359  0.11233193     0.84800
O1311       O  0.97804023  0.78161057  0.12793667    -0.80100
O1312       O  0.89952928  0.66255805  0.41596819    -0.77600
C1313       C  0.97751508  0.61553803  0.50638221     0.83400
O1314       O  0.93202578  0.74411401  0.43148157    -0.78700
O1315       O  0.54923402  0.69780248  0.42263585    -0.80200
O1316       O  0.49245179  0.59589307  0.36128551    -0.80000
O1317       O  0.91403048  0.62760696  0.35546876    -0.78600
Zn1318     Zn  0.94343442  0.66740202  0.44681678     1.55700
O1319       O  0.53555864  0.61818079  0.40303750    -0.80000
Cd1320     Cd  0.96404119  0.64108227  0.34760858     1.59700
Cd1321     Cd  0.96998582  0.72147915  0.38407672     1.59600
O1322       O  0.96344567  0.67050680  0.28335663    -0.80000
O1323       O  0.97499423  0.67266067  0.40035101    -1.90500
Cd1324     Cd  0.51534716  0.65885578  0.43698508     1.59900
O1325       O  0.95029649  0.72197357  0.31394888    -0.80000
O1326       O  0.50548953  0.63213733  0.50418805    -0.78600
C1327       C  0.92598372  0.73155888  0.47360584     0.83900
C1328       C  0.89205054  0.64131417  0.38305538     0.83600
O1329       O  0.95205239  0.62547337  0.48209391    -0.77600
C1330       C  0.52000913  0.59262030  0.38580182     0.84400
O1331       O  0.94423586  0.70734435  0.48897811    -0.77700
C1332       C  0.95212897  0.70102716  0.27850828     0.84500
C1333       C  0.54867056  0.72502308  0.39672555     0.84800
O1334       O  0.52099961  0.73855097  0.38109928    -0.80100
O1335       O  0.84784957  0.61087826  0.09273727    -0.77600
C1336       C  0.89482878  0.53281261  0.00251602     0.83400
O1337       O  0.76616915  0.57831633  0.07756191    -0.78700
O1338       O  0.81261651  0.96110923  0.08649003    -0.80200
O1339       O  0.91450407  0.51809216  0.14763320    -0.80000
O1340       O  0.88264168  0.59644246  0.15346477    -0.78600
Zn1341     Zn  0.84289063  0.56694830  0.06198698     1.55700
O1342       O  0.89221533  0.97486454  0.10615735    -0.80000
Cd1343     Cd  0.86926773  0.54641216  0.16130197     1.59700
Cd1344     Cd  0.78889098  0.54038620  0.12492563     1.59600
O1345       O  0.83989879  0.54691714  0.22559154    -0.80000
O1346       O  0.83770444  0.53542013  0.10854973    -1.90500
Cd1347     Cd  0.85155825  0.99500458  0.07206814     1.59900
O1348       O  0.78842777  0.56008716  0.19505433    -0.80000
O1349       O  0.87834406  0.00477679  0.00487894    -0.78600
C1350       C  0.77866504  0.58436482  0.03540259     0.83900
C1351       C  0.86901145  0.61838759  0.12574793     0.83600
O1352       O  0.88476855  0.55831891  0.02660200    -0.77600
C1353       C  0.91778311  0.99048822  0.12323239     0.84400
O1354       O  0.80286768  0.56612411  0.01995761    -0.77700
C1355       C  0.80938537  0.55823825  0.23047701     0.84500
C1356       C  0.78538874  0.96168769  0.11239100     0.84800
O1357       O  0.77185085  0.98936773  0.12796845    -0.80100
O1358       O  0.85038063  0.60821851  0.41597536    -0.77600
C1359       C  0.77241174  0.65526558  0.50643834     0.83400
O1360       O  0.81787176  0.52669983  0.43151764    -0.78700
O1361       O  0.70067010  0.57302528  0.42265956    -0.80200
O1362       O  0.75745367  0.67493489  0.36135879    -0.80000
O1363       O  0.83586902  0.64319329  0.35551285    -0.78600
Zn1364     Zn  0.80647703  0.60340068  0.44685998     1.55700
O1365       O  0.71436771  0.65266981  0.40318896    -0.80000
Cd1366     Cd  0.78585345  0.62974373  0.34768398     1.59700
Cd1367     Cd  0.77992641  0.54934714  0.38410260     1.59600
O1368       O  0.78642228  0.60035026  0.28341956    -0.80000
O1369       O  0.77490943  0.59815707  0.40041158    -1.90500
Cd1370     Cd  0.73456508  0.61195766  0.43706495     1.59900
O1371       O  0.79962825  0.54888805  0.31397008    -0.80000
O1372       O  0.74444415  0.63865206  0.50427780    -0.78600
C1373       C  0.82390453  0.53924698  0.47365039     0.83900
C1374       C  0.85785511  0.62946698  0.38306527     0.83600
O1375       O  0.79786997  0.64533693  0.48212931    -0.77600
C1376       C  0.72990577  0.67821939  0.38589637     0.84400
O1377       O  0.80565172  0.56346112  0.48902468    -0.77700
C1378       C  0.79776918  0.56984475  0.27854451     0.84500
C1379       C  0.70123895  0.54581433  0.39672506     0.84800
O1380       O  0.72891259  0.53228645  0.38110427    -0.80100
O1381       O  0.64952270  0.85835932  0.09293049    -0.77600
C1382       C  0.72756407  0.90535917  0.00262716     0.83400
O1383       O  0.68205484  0.77672745  0.07759640    -0.78700
O1384       O  0.79926246  0.82311209  0.08646331    -0.80200
O1385       O  0.74239189  0.92500830  0.14773664    -0.80000
O1386       O  0.66400144  0.89324905  0.15351978    -0.78600
Zn1387     Zn  0.69344309  0.85344883  0.06213299     1.55700
O1388       O  0.78557035  0.90270191  0.10616807    -0.80000
Cd1389     Cd  0.71401047  0.87980050  0.16140435     1.59700
Cd1390     Cd  0.72000035  0.79940901  0.12497467     1.59600
O1391       O  0.71342337  0.85039452  0.22567331    -0.80000
O1392       O  0.72498405  0.84822863  0.10865568    -1.90500
Cd1393     Cd  0.76537643  0.86206065  0.07211088     1.59900
O1394       O  0.70030175  0.79891736  0.19509984    -0.80000
O1395       O  0.75557551  0.88883088  0.00492945    -0.78600
C1396       C  0.67601251  0.78925294  0.03545548     0.83900
C1397       C  0.64203593  0.87958051  0.12587338     0.83600
O1398       O  0.70207090  0.89534846  0.02678802    -0.77600
C1399       C  0.76998177  0.92827431  0.12329359     0.84400
O1400       O  0.69426342  0.81345885  0.02004778    -0.77700
C1401       C  0.70212093  0.81986998  0.23053314     0.84500
C1402       C  0.79869328  0.79588913  0.11236868     0.84800
O1403       O  0.77101862  0.78235583  0.12797705    -0.80100
O1404       O  0.65205209  0.86082452  0.41621332    -0.77600
C1405       C  0.60507260  0.78280693  0.50654672     0.83400
O1406       O  0.73369829  0.82826892  0.43150729    -0.78700
O1407       O  0.68726765  0.71107719  0.42264116    -0.80200
O1408       O  0.58538497  0.76799586  0.36139593    -0.80000
O1409       O  0.61721320  0.84636831  0.35555451    -0.78600
Zn1410     Zn  0.65697044  0.81690774  0.44700524     1.55700
O1411       O  0.60764652  0.72483756  0.40305956    -0.80000
Cd1412     Cd  0.63061224  0.79634206  0.34773180     1.59700
Cd1413     Cd  0.71099507  0.79033354  0.38413105     1.59600
O1414       O  0.65999678  0.79689510  0.28345460    -0.80000
O1415       O  0.66217934  0.78536435  0.40048285    -1.90500
Cd1416     Cd  0.64833928  0.74498385  0.43704717     1.59900
O1417       O  0.71146648  0.81005344  0.31401184    -0.80000
O1418       O  0.62160685  0.75479788  0.50426326    -0.78600
C1419       C  0.72117882  0.83432825  0.47364922     0.83900
C1420       C  0.63087325  0.86832535  0.38322341     0.83600
O1421       O  0.61507711  0.80828905  0.48236070    -0.77600
C1422       C  0.58209358  0.74042323  0.38586897     0.84400
O1423       O  0.69696651  0.81609231  0.48907430    -0.77700
C1424       C  0.69050765  0.80822970  0.27858730     0.84500
C1425       C  0.71449240  0.71163888  0.39673409     0.84800
O1426       O  0.72802852  0.73930922  0.38111629    -0.80100
O1427       O  0.60037129  0.91267323  0.09293055    -0.77600
C1428       C  0.52236081  0.86566038  0.00256757     0.83400
O1429       O  0.56783259  0.49428148  0.07756739    -0.78700
O1430       O  0.95063828  0.94788659  0.08640785    -0.80200
O1431       O  0.00748180  0.84598281  0.14766974    -0.80000
O1432       O  0.58586790  0.87775080  0.15346883    -0.78600
Zn1433     Zn  0.55645881  0.91756540  0.06209559     1.55700
O1434       O  0.96434480  0.86826228  0.10598275    -0.80000
Cd1435     Cd  0.53585804  0.89118888  0.16132932     1.59700
Cd1436     Cd  0.52989531  0.97158588  0.12495131     1.59600
O1437       O  0.53643553  0.92056365  0.22561116    -0.80000
O1438       O  0.52490370  0.92277330  0.10859802    -1.90500
Cd1439     Cd  0.98453071  0.90894889  0.07201733     1.59900
O1440       O  0.54960716  0.97203840  0.19507666    -0.80000
O1441       O  0.99436136  0.88221204  0.00482267    -0.78600
C1442       C  0.57387171  0.98176182  0.03542009     0.83900
C1443       C  0.60784576  0.89144017  0.12586274     0.83600
O1444       O  0.54784443  0.87565807  0.02675825    -0.77600
C1445       C  0.97991158  0.84270314  0.12318941     0.84400
O1446       O  0.55562205  0.95755574  0.02001207    -0.77700
C1447       C  0.54777280  0.95107206  0.23049251     0.84500
C1448       C  0.95120449  0.97510091  0.11233501     0.84800
O1449       O  0.97887613  0.98863135  0.12795704    -0.80100
O1450       O  0.59787266  0.91003606  0.41621762    -0.77600
C1451       C  0.64486662  0.98807120  0.50649729     0.83400
O1452       O  0.51623468  0.94257314  0.43149146    -0.78700
O1453       O  0.56264895  0.55978157  0.42257492    -0.80200
O1454       O  0.66453910  0.50283684  0.36138582    -0.80000
O1455       O  0.63269124  0.92447313  0.35552059    -0.78600
Zn1456     Zn  0.59295264  0.95395749  0.44699206     1.55700
O1457       O  0.64225288  0.54603892  0.40292576    -0.80000
Cd1458     Cd  0.61930813  0.97450539  0.34769902     1.59700
Cd1459     Cd  0.53893204  0.98051243  0.38411581     1.59600
O1460       O  0.58991828  0.97399444  0.28342564    -0.80000
O1461       O  0.58774624  0.98549059  0.40045706    -1.90500
Cd1462     Cd  0.60158919  0.52588745  0.43698354     1.59900
O1463       O  0.53845367  0.96081663  0.31398973    -0.80000
O1464       O  0.62835229  0.51609122  0.50418210    -0.78600
C1465       C  0.52874781  0.93652589  0.47363880     0.83900
C1466       C  0.61904110  0.90252529  0.38321604     0.83600
O1467       O  0.63484360  0.96258060  0.48234500    -0.77600
C1468       C  0.66781869  0.53042720  0.38582057     0.84400
O1469       O  0.55295360  0.95477043  0.48906221    -0.77700
C1470       C  0.55940321  0.96267164  0.27855567     0.84500
C1471       C  0.53542293  0.55920662  0.39667417     0.84800
O1472       O  0.52188747  0.53152875  0.38108511    -0.80100
loop_ 
_geom_bond_atom_site_label_1 
_geom_bond_atom_site_label_2 
_geom_bond_distance 
_geom_bond_site_symmetry_2 
_ccdc_geom_bond_type 
O1           C17   1.266       .  A
O1           Zn7   1.944       .  S
C2           O18   1.266       .  A
C2           O15   1.270       .  A
C2           C48   1.425       .  S
O3           C16   1.280       .  A
O3          Cd10   2.173       .  S
O4           C22   1.288       .  A
O4          Cd13   2.110       .  S
O5           C19   1.269       .  A
O5           Cd9   2.017       .  S
O6          C753   1.282       .  A
O6           Cd9   2.159       .  S
Zn7          O18   1.934       .  S
Zn7          O20   1.953       .  S
Zn7          O12   1.793       .  S
O8           C19   1.283       .  A
O8         Cd749   2.135       .  S
Cd9          O11   2.071       .  S
Cd9         O748   1.958       .  S
Cd10         O23   2.075       .  S
Cd10        O750   2.120   1_455  S
Cd10         O12   1.983       .  S
O11          C21   1.287       .  A
O12         Cd13   1.957       .  S
O12        Cd745   1.958   1_455  S
Cd13         O15   2.050       .  S
Cd13        O744   2.135       .  S
O14          C21   1.286       .  A
O14        Cd746   2.120       .  S
C16          O20   1.266       .  A
C16         C301   1.485       .  S
C17         O742   1.282   1_455  A
C17         C361   1.485       .  S
C19         C159   1.479       .  S
C21         C111   1.479       .  S
C22          O23   1.277       .  A
C22          C45   1.469       .  S
O24          C40   1.266   1_556  A
O24         Zn30   1.944       .  S
C25          O41   1.266       .  A
C25          O38   1.270       .  A
C25          C71   1.425       .  S
O26          C39   1.280       .  A
O26         Cd33   2.173       .  S
O27          C45   1.288       .  A
O27         Cd36   2.110       .  S
O28          C42   1.269       .  A
O28         Cd32   2.017       .  S
O29          C40   1.282       .  A
O29         Cd32   2.159   1_554  S
Zn30         O41   1.934       .  S
Zn30         O43   1.953       .  S
Zn30         O35   1.793       .  S
O31          C42   1.283       .  A
O31         Cd36   2.135       .  S
Cd32         O34   2.071       .  S
Cd32         O35   1.957       .  S
Cd33         O37   2.120       .  S
Cd33         O46   2.075       .  S
Cd33         O35   1.983       .  S
O34          C44   1.287       .  A
O35         Cd36   1.957       .  S
Cd36         O38   2.050       .  S
O37          C44   1.286       .  A
C39          O43   1.266       .  A
C39         C324   1.485   1_556  S
C40         C292   1.485       .  S
C42         C136   1.479       .  S
C44         C180   1.479       .  S
C45          O46   1.277       .  A
O47          C63   1.266       .  A
O47         Zn53   1.944       .  S
C48          O64   1.266       .  A
C48          O61   1.270       .  A
O49         C430   1.280       .  A
O49        Cd424   2.173       .  S
O50          C68   1.288       .  A
O50         Cd59   2.110       .  S
O51          C65   1.269       .  A
O51         Cd55   2.017       .  S
O52          C63   1.282       .  A
O52         Cd55   2.159       .  S
Zn53         O64   1.934       .  S
Zn53         O66   1.953       .  S
Zn53         O58   1.793       .  S
O54          C65   1.283       .  A
O54         Cd59   2.135       .  S
Cd55         O57   2.071       .  S
Cd55         O58   1.958       .  S
Cd56         O60   2.119       .  S
Cd56         O69   2.075       .  S
Cd56        O417   2.173       .  S
Cd56         O58   1.983       .  S
O57          C67   1.287       .  A
O58         Cd59   1.957       .  S
Cd59         O61   2.050       .  S
O60          C67   1.286       .  A
C62          O66   1.266       .  A
C62         O417   1.280       .  A
C62         C347   1.485       .  S
C63         C315   1.485       .  S
C65         C113   1.479       .  S
C67         C157   1.479       .  S
C68          O69   1.277       .  A
C68          C91   1.469       .  S
O70          C86   1.266   1_556  A
O70         Zn76   1.944       .  S
C71          O87   1.266       .  A
C71          O84   1.270       .  A
O72          C85   1.280       .  A
O72         Cd79   2.173       .  S
O73          C91   1.288       .  A
O73         Cd82   2.110       .  S
O74          C88   1.269       .  A
O74         Cd78   2.017       .  S
O75         C454   1.282   1_545  A
O75         Cd78   2.159   1_554  S
Zn76         O87   1.934       .  S
Zn76         O89   1.953       .  S
Zn76         O81   1.793       .  S
O77          C88   1.283       .  A
O77        Cd450   2.135   1_545  S
Cd78         O80   2.071       .  S
Cd78        O449   1.958   1_545  S
Cd79         O92   2.076       .  S
Cd79        O451   2.120       .  S
Cd79         O81   1.983       .  S
O80          C90   1.287       .  A
O81         Cd82   1.957       .  S
O81        Cd446   1.958       .  S
Cd82         O84   2.050       .  S
Cd82        O445   2.135       .  S
O83          C90   1.286       .  A
O83        Cd447   2.120   1_545  S
C85          O89   1.266       .  A
C85         C278   1.485   1_556  S
C86         O443   1.282       .  A
C86         C338   1.485       .  S
C88         C182   1.479       .  S
C90         C134   1.479       .  S
C91          O92   1.277       .  A
O93         C109   1.266       .  A
O93         Zn99   1.944       .  S
C94         O110   1.266       .  A
C94         O107   1.270       .  A
C94         C140   1.425       .  S
O95         C108   1.280       .  A
O95        Cd102   2.173       .  S
O96         C114   1.288       .  A
O96        Cd105   2.110       .  S
O97         C111   1.269       .  A
O97        Cd101   2.017       .  S
O98         C109   1.282       .  A
O98        Cd101   2.159       .  S
Zn99        O110   1.934       .  S
Zn99        O112   1.953       .  S
Zn99        O104   1.793       .  S
O100        C111   1.283       .  A
O100       Cd105   2.135       .  S
Cd101       O103   2.071       .  S
Cd101       O104   1.957       .  S
Cd102       O106   2.120       .  S
Cd102       O115   2.075       .  S
Cd102       O104   1.983       .  S
O103        C113   1.287       .  A
O104       Cd105   1.956       .  S
Cd105       O107   2.051       .  S
O106        C113   1.286       .  A
C108        O112   1.266       .  A
C108        C255   1.485       .  S
C109        C223   1.485       .  S
C114        O115   1.277       .  A
C114        C137   1.469       .  S
O116        C132   1.266   1_556  A
O116       Zn122   1.944       .  S
C117        O133   1.266       .  A
C117        O130   1.270       .  A
C117        C163   1.425       .  S
O118        C131   1.280       .  A
O118       Cd125   2.173       .  S
O119        C137   1.288       .  A
O119       Cd128   2.110       .  S
O120        C134   1.269       .  A
O120       Cd124   2.017       .  S
O121        C132   1.282       .  A
O121       Cd124   2.159   1_554  S
Zn122       O133   1.934       .  S
Zn122       O135   1.953       .  S
Zn122       O127   1.793       .  S
O123        C134   1.283       .  A
O123       Cd128   2.135       .  S
Cd124       O126   2.071       .  S
Cd124       O127   1.958       .  S
Cd125       O129   2.119       .  S
Cd125       O138   2.075       .  S
Cd125       O127   1.983       .  S
O126        C136   1.287       .  A
O127       Cd128   1.957       .  S
Cd128       O130   2.050       .  S
O129        C136   1.286       .  A
C131        O135   1.266       .  A
C131        C186   1.485   1_556  S
C132        C246   1.485       .  S
C137        O138   1.277       .  A
O139        C155   1.266       .  A
O139       Zn145   1.944       .  S
C140        O156   1.266       .  A
C140        O153   1.270       .  A
O141        C154   1.280       .  A
O141       Cd148   2.173       .  S
O142        C160   1.288       .  A
O142       Cd151   2.110       .  S
O143        C157   1.269       .  A
O143       Cd147   2.017       .  S
O144        C523   1.282       .  A
O144       Cd147   2.159       .  S
Zn145       O156   1.935       .  S
Zn145       O158   1.953       .  S
Zn145       O150   1.793       .  S
O146        C525   1.283   1_545  A
O146       Cd151   2.135       .  S
Cd147       O149   2.071       .  S
Cd147       O518   1.957       .  S
Cd148       O161   2.076       .  S
Cd148       O520   2.119   1_545  S
Cd148       O150   1.983       .  S
O149        C159   1.287       .  A
O150       Cd151   1.956       .  S
O150       Cd515   1.957   1_545  S
Cd151       O153   2.050       .  S
O152        C159   1.286       .  A
O152       Cd516   2.119       .  S
C154        O158   1.266       .  A
C154        C209   1.485       .  S
C155        O512   1.282       .  A
C155        C269   1.485       .  S
C157        O514   1.283       .  A
C160        O161   1.277       .  A
C160        C183   1.469       .  S
O162        C178   1.266   1_556  A
O162       Zn168   1.944       .  S
C163        O179   1.266       .  A
C163        O176   1.270       .  A
O164        C177   1.280       .  A
O164       Cd171   2.173       .  S
O165        C183   1.288       .  A
O165       Cd174   2.110       .  S
O166        C180   1.269       .  A
O166       Cd170   2.017       .  S
O167        C914   1.282   1_455  A
O167       Cd170   2.159   1_554  S
Zn168       O179   1.934       .  S
Zn168       O181   1.953       .  S
Zn168       O173   1.793       .  S
O169        C180   1.283   1_655  A
O169       Cd910   2.135       .  S
Cd170       O172   2.071       .  S
Cd170       O909   1.958   1_455  S
Cd171       O184   2.075       .  S
Cd171       O911   2.120       .  S
Cd171       O173   1.984       .  S
O172        C182   1.287       .  A
O173       Cd174   1.957       .  S
O173       Cd906   1.958       .  S
Cd174       O176   2.050       .  S
Cd174       O905   2.135       .  S
O175        C182   1.286       .  A
O175       Cd907   2.120   1_455  S
C177        O181   1.266       .  A
C177        C232   1.485   1_556  S
C178        O903   1.282       .  A
C178        C200   1.485       .  S
C183        O184   1.277       .  A
O185        C201   1.266       .  A
O185       Zn191   1.934       .  S
C186        O202   1.266       .  A
C186        O199   1.282       .  A
O187        C200   1.280       .  A
O187       Cd194   2.173       .  S
O188        C206   1.287       .  A
O188       Cd197   2.071       .  S
O189        C203   1.283       .  A
O189       Cd193   2.135       .  S
O190        C201   1.270       .  A
O190       Cd193   2.050       .  S
Zn191       O202   1.944       .  S
Zn191       O204   1.953       .  S
Zn191       O196   1.794       .  S
O192        C203   1.269       .  A
O192       Cd197   2.017       .  S
Cd193       O195   2.110       .  S
Cd193       O196   1.957       .  S
Cd194       O198   2.076       .  S
Cd194       O207   2.120       .  S
Cd194       O196   1.984       .  S
O195        C205   1.288       .  A
O196       Cd197   1.958       .  S
Cd197       O199   2.159       .  S
O198        C205   1.277       .  A
C200        O204   1.266       .  A
C201        C247   1.425       .  S
C203        C298   1.479       .  S
C205        C228   1.469       .  S
C206        O207   1.286       .  A
C206        C341   1.479       .  S
O208        C224   1.266       .  A
O208       Zn214   1.934       .  S
C209        O225   1.266       .  A
C209        O958   1.282       .  A
O210        C223   1.280       .  A
O210       Cd217   2.173       .  S
O211        C229   1.287       .  A
O211       Cd220   2.070       .  S
O212        C226   1.283   1_655  A
O212       Cd952   2.135       .  S
O213        C224   1.270       .  A
O213       Cd216   2.051       .  S
Zn214       O225   1.944       .  S
Zn214       O227   1.953       .  S
Zn214       O219   1.793       .  S
O215        C226   1.269       .  A
O215       Cd220   2.017       .  S
Cd216       O218   2.110       .  S
Cd216       O948   2.135       .  S
Cd216       O219   1.957       .  S
Cd217       O221   2.075       .  S
Cd217       O966   2.120       .  S
Cd217       O219   1.983       .  S
O218        C228   1.289       .  A
O219       Cd956   1.957       .  S
Cd220       O222   2.159       .  S
Cd220       O955   1.957   1_455  S
O221        C228   1.277       .  A
O222        C945   1.282   1_455  A
C223        O227   1.266       .  A
C224        C270   1.425       .  S
C226        C367   1.479       .  S
C229        O230   1.286       .  A
C229        C318   1.479       .  S
O230       Cd953   2.120   1_455  S
O231        C247   1.266       .  A
O231       Zn237   1.935       .  S
C232        O248   1.266       .  A
C232        O613   1.282       .  A
O233        C246   1.280       .  A
O233       Cd240   2.173       .  S
O234        C252   1.287       .  A
O234       Cd243   2.071       .  S
O235        C617   1.283   1_545  A
O235       Cd239   2.135       .  S
O236        C247   1.270       .  A
O236       Cd239   2.050       .  S
Zn237       O248   1.944       .  S
Zn237       O250   1.953       .  S
Zn237       O242   1.793       .  S
O238        C249   1.269       .  A
O238       Cd243   2.017       .  S
Cd239       O241   2.110       .  S
Cd239       O242   1.957       .  S
Cd240       O244   2.076       .  S
Cd240       O621   2.119   1_545  S
Cd240       O242   1.983       .  S
O241        C251   1.288       .  A
O242       Cd611   1.958   1_545  S
Cd243       O245   2.159       .  S
Cd243       O610   1.958       .  S
O244        C251   1.277       .  A
O245        C600   1.282       .  A
C246        O250   1.266       .  A
C249        O603   1.283       .  A
C249        C344   1.479       .  S
C251        C274   1.469       .  S
C252        O253   1.286       .  A
C252        C295   1.479       .  S
O253       Cd608   2.119       .  S
O254        C270   1.266       .  A
O254       Zn260   1.935       .  S
C255        O271   1.266       .  A
C255        O268   1.282       .  A
O256        C269   1.280       .  A
O256       Cd263   2.173       .  S
O257        C275   1.287       .  A
O257       Cd266   2.071       .  S
O258        C272   1.283       .  A
O258       Cd262   2.135       .  S
O259        C270   1.270       .  A
O259       Cd262   2.051       .  S
Zn260       O271   1.944       .  S
Zn260       O273   1.953       .  S
Zn260       O265   1.793       .  S
O261        C272   1.269       .  A
O261       Cd266   2.017       .  S
Cd262       O264   2.110       .  S
Cd262       O265   1.956       .  S
Cd263       O267   2.076       .  S
Cd263       O276   2.119       .  S
Cd263       O265   1.983       .  S
O264        C274   1.288       .  A
O265       Cd266   1.957       .  S
Cd266       O268   2.159       .  S
O267        C274   1.277       .  A
C269        O273   1.266       .  A
C272        C321   1.479       .  S
C275        O276   1.286       .  A
C275        C364   1.479       .  S
O277        C293   1.266       .  A
O277       Zn283   1.935       .  S
C278        O294   1.266       .  A
C278        O291   1.282       .  A
O279        C292   1.280       .  A
O279       Cd286   2.173       .  S
O280        C298   1.287       .  A
O280       Cd289   2.071       .  S
O281        C295   1.283       .  A
O281       Cd285   2.135       .  S
O282        C293   1.270       .  A
O282       Cd285   2.050       .  S
Zn283       O294   1.944       .  S
Zn283       O296   1.953       .  S
Zn283       O288   1.793       .  S
O284        C295   1.269       .  A
O284       Cd289   2.017       .  S
Cd285       O287   2.110       .  S
Cd285       O288   1.957       .  S
Cd286       O290   2.075       .  S
Cd286       O299   2.120       .  S
Cd286       O288   1.983       .  S
O287        C297   1.289       .  A
O288       Cd289   1.958       .  S
Cd289       O291   2.159       .  S
O290        C297   1.277       .  A
C292        O296   1.266       .  A
C293        C339   1.425       .  S
C297        C320   1.469       .  S
C298        O299   1.286       .  A
O300        C316   1.266       .  A
O300       Zn306   1.934       .  S
C301        O317   1.266       .  A
C301        O314   1.282       .  A
O302        C315   1.280       .  A
O302       Cd309   2.173       .  S
O303        C321   1.287       .  A
O303       Cd312   2.071       .  S
O304        C318   1.283       .  A
O304       Cd308   2.135       .  S
O305        C316   1.270       .  A
O305       Cd308   2.050       .  S
Zn306       O317   1.944       .  S
Zn306       O319   1.953       .  S
Zn306       O311   1.793       .  S
O307        C318   1.269       .  A
O307       Cd312   2.017       .  S
Cd308       O310   2.110       .  S
Cd308       O311   1.957       .  S
Cd309       O313   2.076       .  S
Cd309       O322   2.120       .  S
Cd309       O311   1.983       .  S
O310        C320   1.288       .  A
O311       Cd312   1.958       .  S
Cd312       O314   2.159       .  S
O313        C320   1.277       .  A
C315        O319   1.266       .  A
C316        C362   1.425       .  S
C321        O322   1.286       .  A
O323        C339   1.266       .  A
O323       Zn329   1.935       .  S
C324        O340   1.266       .  A
C324       O1073   1.282   1_455  A
O325        C706   1.280       .  A
O325       Cd700   2.173       .  S
O326        C344   1.287       .  A
O326       Cd335   2.071       .  S
O327        C341   1.283       .  A
O327      Cd1067   2.135       .  S
O328        C339   1.270       .  A
O328       Cd331   2.050       .  S
Zn329       O340   1.944       .  S
Zn329       O342   1.953       .  S
Zn329       O334   1.793       .  S
O330        C341   1.269       .  A
O330       Cd335   2.017       .  S
Cd331       O333   2.110       .  S
Cd331      O1063   2.135       .  S
Cd331       O334   1.957       .  S
Cd332       O336   2.076       .  S
Cd332       O693   2.173       .  S
Cd332      O1081   2.120   1_455  S
Cd332       O334   1.983       .  S
O333        C343   1.288       .  A
O334      Cd1071   1.957   1_455  S
Cd335       O337   2.159       .  S
Cd335      O1070   1.957       .  S
O336        C343   1.277       .  A
O337       C1060   1.282       .  A
C338        O342   1.266       .  A
C338        O693   1.280       .  A
C343        C366   1.469       .  S
C344        O345   1.286       .  A
O345      Cd1068   2.120       .  S
O346        C362   1.266       .  A
O346       Zn352   1.934       .  S
C347        O363   1.266       .  A
C347        O728   1.282       .  A
O348        C361   1.280       .  A
O348       Cd355   2.173       .  S
O349        C367   1.287       .  A
O349       Cd358   2.071       .  S
O350        C364   1.283       .  A
O350       Cd722   2.135   1_545  S
O351        C362   1.270       .  A
O351       Cd354   2.050       .  S
Zn352       O363   1.944       .  S
Zn352       O365   1.953       .  S
Zn352       O357   1.793       .  S
O353        C364   1.269       .  A
O353       Cd358   2.017       .  S
Cd354       O356   2.110       .  S
Cd354       O718   2.135       .  S
Cd354       O357   1.957       .  S
Cd355       O359   2.075       .  S
Cd355       O736   2.119       .  S
Cd355       O357   1.983       .  S
O356        C366   1.288       .  A
O357       Cd726   1.958       .  S
Cd358       O360   2.159       .  S
Cd358       O725   1.958   1_545  S
O359        C366   1.277       .  A
O360        C715   1.282   1_545  A
C361        O365   1.266       .  A
C367        O368   1.286       .  A
O368       Cd723   2.119   1_545  S
O369        C385   1.266       .  A
O369       Zn375   1.944       .  S
C370        O386   1.266       .  A
C370        O383   1.270       .  A
C370        C416   1.425       .  S
O371        C384   1.280       .  A
O371       Cd378   2.173       .  S
O372        C390   1.288       .  A
O372       Cd381   2.110       .  S
O373        C387   1.269       .  A
O373       Cd377   2.017       .  S
O374       C1121   1.282       .  A
O374       Cd377   2.159       .  S
Zn375       O386   1.934       .  S
Zn375       O388   1.953       .  S
Zn375       O380   1.793       .  S
O376        C387   1.283       .  A
O376      Cd1117   2.135       .  S
Cd377       O379   2.071       .  S
Cd377      O1116   1.958       .  S
Cd378      O1118   2.120   1_455  S
Cd378       O391   2.075       .  S
Cd378       O380   1.983       .  S
O379        C389   1.287       .  A
O380      Cd1113   1.958   1_455  S
O380       Cd381   1.957       .  S
Cd381      O1112   2.135       .  S
Cd381       O383   2.050       .  S
O382        C389   1.286       .  A
O382      Cd1114   2.120       .  S
C384        O388   1.266       .  A
C384        C669   1.485       .  S
C385       O1110   1.282   1_455  A
C385        C729   1.485       .  S
C387        C527   1.479       .  S
C389        C479   1.479       .  S
C390        O391   1.277       .  A
C390        C413   1.469       .  S
O392        C408   1.266   1_556  A
O392       Zn398   1.944       .  S
C393        O409   1.266       .  A
C393        O406   1.270       .  A
C393        C439   1.425       .  S
O394        C407   1.280       .  A
O394       Cd401   2.173       .  S
O395        C413   1.288       .  A
O395       Cd404   2.110       .  S
O396        C410   1.269       .  A
O396       Cd400   2.017       .  S
O397        C408   1.282       .  A
O397       Cd400   2.159   1_554  S
Zn398       O409   1.934       .  S
Zn398       O411   1.953       .  S
Zn398       O403   1.793       .  S
O399        C410   1.283       .  A
O399       Cd404   2.135       .  S
Cd400       O402   2.071       .  S
Cd400       O403   1.957       .  S
Cd401       O405   2.120       .  S
Cd401       O414   2.075       .  S
Cd401       O403   1.983       .  S
O402        C412   1.287       .  A
O403       Cd404   1.957       .  S
Cd404       O406   2.050       .  S
O405        C412   1.286       .  A
C407        O411   1.266       .  A
C407        C692   1.485   1_556  S
C408        C660   1.485       .  S
C410        C504   1.479       .  S
C412        C548   1.479       .  S
C413        O414   1.277       .  A
O415        C431   1.266       .  A
O415       Zn421   1.944       .  S
C416        O432   1.266       .  A
C416        O429   1.270       .  A
O418        C436   1.288       .  A
O418       Cd427   2.110       .  S
O419        C433   1.269       .  A
O419       Cd423   2.017       .  S
O420        C431   1.282       .  A
O420       Cd423   2.159       .  S
Zn421       O432   1.934       .  S
Zn421       O434   1.953       .  S
Zn421       O426   1.793       .  S
O422        C433   1.283       .  A
O422       Cd427   2.135       .  S
Cd423       O425   2.071       .  S
Cd423       O426   1.958       .  S
Cd424       O428   2.119       .  S
Cd424       O437   2.075       .  S
Cd424       O426   1.983       .  S
O425        C435   1.287       .  A
O426       Cd427   1.957       .  S
Cd427       O429   2.050       .  S
O428        C435   1.286       .  A
C430        O434   1.266       .  A
C430        C715   1.485       .  S
C431        C683   1.485       .  S
C433        C481   1.479       .  S
C435        C525   1.479       .  S
C436        O437   1.277       .  A
C436        C459   1.469       .  S
O438        C454   1.266   1_556  A
O438       Zn444   1.944       .  S
C439        O455   1.266       .  A
C439        O452   1.270       .  A
O440        C453   1.280       .  A
O440       Cd447   2.173       .  S
O441        C459   1.288       .  A
O441       Cd450   2.110       .  S
O442        C456   1.269       .  A
O442       Cd446   2.017       .  S
O443       Cd446   2.159   1_554  S
Zn444       O455   1.934       .  S
Zn444       O457   1.953       .  S
Zn444       O449   1.793       .  S
O445        C456   1.283       .  A
Cd446       O448   2.071       .  S
Cd447       O460   2.076       .  S
Cd447       O449   1.983       .  S
O448        C458   1.287       .  A
O449       Cd450   1.957       .  S
Cd450       O452   2.050       .  S
O451        C458   1.286       .  A
C453        O457   1.266       .  A
C453        C646   1.485   1_556  S
C454        C706   1.485       .  S
C456        C550   1.479       .  S
C458        C502   1.479       .  S
C459        O460   1.277       .  A
O461        C477   1.266       .  A
O461       Zn467   1.944       .  S
C462        O478   1.266       .  A
C462        O475   1.270       .  A
C462        C508   1.425       .  S
O463        C476   1.280       .  A
O463       Cd470   2.173       .  S
O464        C482   1.288       .  A
O464       Cd473   2.110       .  S
O465        C479   1.269       .  A
O465       Cd469   2.017       .  S
O466        C477   1.282       .  A
O466       Cd469   2.159       .  S
Zn467       O478   1.934       .  S
Zn467       O480   1.953       .  S
Zn467       O472   1.793       .  S
O468        C479   1.283       .  A
O468       Cd473   2.135       .  S
Cd469       O471   2.071       .  S
Cd469       O472   1.957       .  S
Cd470       O474   2.120       .  S
Cd470       O483   2.075       .  S
Cd470       O472   1.983       .  S
O471        C481   1.287       .  A
O472       Cd473   1.956       .  S
Cd473       O475   2.051       .  S
O474        C481   1.286       .  A
C476        O480   1.266       .  A
C476        C623   1.485       .  S
C477        C591   1.485       .  S
C482        O483   1.277       .  A
C482        C505   1.469       .  S
O484        C500   1.266   1_556  A
O484       Zn490   1.944       .  S
C485        O501   1.266       .  A
C485        O498   1.270       .  A
C485        C531   1.425       .  S
O486        C499   1.280       .  A
O486       Cd493   2.173       .  S
O487        C505   1.288       .  A
O487       Cd496   2.110       .  S
O488        C502   1.269       .  A
O488       Cd492   2.017       .  S
O489        C500   1.282       .  A
O489       Cd492   2.159   1_554  S
Zn490       O501   1.934       .  S
Zn490       O503   1.953       .  S
Zn490       O495   1.793       .  S
O491        C502   1.283       .  A
O491       Cd496   2.135       .  S
Cd492       O494   2.071       .  S
Cd492       O495   1.958       .  S
Cd493       O497   2.119       .  S
Cd493       O506   2.075       .  S
Cd493       O495   1.983       .  S
O494        C504   1.287       .  A
O495       Cd496   1.957       .  S
Cd496       O498   2.050       .  S
O497        C504   1.286       .  A
C499        O503   1.266       .  A
C499        C554   1.485   1_556  S
C500        C614   1.485       .  S
C505        O506   1.277       .  A
O507        C523   1.266       .  A
O507       Zn513   1.944       .  S
C508        O524   1.266       .  A
C508        O521   1.270       .  A
O509        C522   1.280       .  A
O509       Cd516   2.173       .  S
O510        C528   1.288       .  A
O510       Cd519   2.110       .  S
O511        C525   1.269       .  A
O511       Cd515   2.017       .  S
O512       Cd515   2.159   1_545  S
Zn513       O524   1.935       .  S
Zn513       O526   1.953       .  S
Zn513       O518   1.793       .  S
O514       Cd519   2.135       .  S
Cd515       O517   2.071       .  S
Cd516       O529   2.076       .  S
Cd516       O518   1.983       .  S
O517        C527   1.287       .  A
O518       Cd519   1.956       .  S
Cd519       O521   2.050       .  S
O520        C527   1.286       .  A
C522        O526   1.266       .  A
C522        C577   1.485       .  S
C523        C637   1.485       .  S
C528        O529   1.277       .  A
C528        C551   1.469       .  S
O530        C546   1.266   1_556  A
O530       Zn536   1.944       .  S
C531        O547   1.266       .  A
C531        O544   1.270       .  A
O532        C545   1.280       .  A
O532       Cd539   2.173       .  S
O533        C551   1.288       .  A
O533       Cd542   2.110       .  S
O534        C548   1.269       .  A
O534       Cd538   2.017       .  S
O535       C1282   1.282   1_455  A
O535       Cd538   2.159   1_554  S
Zn536       O547   1.934       .  S
Zn536       O549   1.953       .  S
Zn536       O541   1.793       .  S
O537        C548   1.283   1_655  A
O537      Cd1278   2.135       .  S
Cd538       O540   2.071       .  S
Cd538      O1277   1.958   1_455  S
Cd539      O1279   2.120       .  S
Cd539       O552   2.075       .  S
Cd539       O541   1.984       .  S
O540        C550   1.287       .  A
O541      Cd1274   1.958       .  S
O541       Cd542   1.957       .  S
Cd542      O1273   2.135       .  S
Cd542       O544   2.050       .  S
O543        C550   1.286       .  A
O543      Cd1275   2.120   1_455  S
C545        O549   1.266       .  A
C545        C600   1.485   1_556  S
C546       O1271   1.282       .  A
C546        C568   1.485       .  S
C551        O552   1.277       .  A
O553        C569   1.266       .  A
O553       Zn559   1.934       .  S
C554        O570   1.266       .  A
C554        O567   1.282       .  A
O555        C568   1.280       .  A
O555       Cd562   2.173       .  S
O556        C574   1.287       .  A
O556       Cd565   2.071       .  S
O557        C571   1.283       .  A
O557       Cd561   2.135       .  S
O558        C569   1.270       .  A
O558       Cd561   2.050       .  S
Zn559       O570   1.944       .  S
Zn559       O572   1.953       .  S
Zn559       O564   1.794       .  S
O560        C571   1.269       .  A
O560       Cd565   2.017       .  S
Cd561       O563   2.110       .  S
Cd561       O564   1.957       .  S
Cd562       O566   2.076       .  S
Cd562       O575   2.120       .  S
Cd562       O564   1.984       .  S
O563        C573   1.288       .  A
O564       Cd565   1.958       .  S
Cd565       O567   2.159       .  S
O566        C573   1.277       .  A
C568        O572   1.266       .  A
C569        C615   1.425       .  S
C571        C666   1.479       .  S
C573        C596   1.469       .  S
C574        O575   1.286       .  A
C574        C709   1.479       .  S
O576        C592   1.266       .  A
O576       Zn582   1.934       .  S
C577        O593   1.266       .  A
C577       O1326   1.282       .  A
O578        C591   1.280       .  A
O578       Cd585   2.173       .  S
O579        C597   1.287       .  A
O579       Cd588   2.070       .  S
O580        C594   1.283   1_655  A
O580      Cd1320   2.135       .  S
O581        C592   1.270       .  A
O581       Cd584   2.051       .  S
Zn582       O593   1.944       .  S
Zn582       O595   1.953       .  S
Zn582       O587   1.793       .  S
O583        C594   1.269       .  A
O583       Cd588   2.017       .  S
Cd584      O1316   2.135       .  S
Cd584       O586   2.110       .  S
Cd584       O587   1.957       .  S
Cd585       O589   2.075       .  S
Cd585      O1334   2.120       .  S
Cd585       O587   1.983       .  S
O586        C596   1.289       .  A
O587      Cd1324   1.957       .  S
Cd588       O590   2.159       .  S
Cd588      O1323   1.957   1_455  S
O589        C596   1.277       .  A
O590       C1313   1.282   1_455  A
C591        O595   1.266       .  A
C592        C638   1.425       .  S
C594        C735   1.479       .  S
C597        O598   1.286       .  A
C597        C686   1.479       .  S
O598      Cd1321   2.120   1_455  S
O599        C615   1.266       .  A
O599       Zn605   1.935       .  S
C600        O616   1.266       .  A
O601        C614   1.280       .  A
O601       Cd608   2.173       .  S
O602        C620   1.287       .  A
O602       Cd611   2.071       .  S
O603       Cd607   2.135       .  S
O604        C615   1.270       .  A
O604       Cd607   2.050       .  S
Zn605       O616   1.944       .  S
Zn605       O618   1.953       .  S
Zn605       O610   1.793       .  S
O606        C617   1.269       .  A
O606       Cd611   2.017       .  S
Cd607       O609   2.110       .  S
Cd607       O610   1.957       .  S
Cd608       O612   2.076       .  S
Cd608       O610   1.983       .  S
O609        C619   1.288       .  A
Cd611       O613   2.159   1_565  S
O612        C619   1.277       .  A
C614        O618   1.266       .  A
C617        C712   1.479       .  S
C619        C642   1.469       .  S
C620        O621   1.286       .  A
C620        C663   1.479       .  S
O622        C638   1.266       .  A
O622       Zn628   1.935       .  S
C623        O639   1.266       .  A
C623        O636   1.282       .  A
O624        C637   1.280       .  A
O624       Cd631   2.173       .  S
O625        C643   1.287       .  A
O625       Cd634   2.071       .  S
O626        C640   1.283       .  A
O626       Cd630   2.135       .  S
O627        C638   1.270       .  A
O627       Cd630   2.051       .  S
Zn628       O639   1.944       .  S
Zn628       O641   1.953       .  S
Zn628       O633   1.793       .  S
O629        C640   1.269       .  A
O629       Cd634   2.017       .  S
Cd630       O632   2.110       .  S
Cd630       O633   1.956       .  S
Cd631       O635   2.076       .  S
Cd631       O644   2.119       .  S
Cd631       O633   1.983       .  S
O632        C642   1.288       .  A
O633       Cd634   1.957       .  S
Cd634       O636   2.159       .  S
O635        C642   1.277       .  A
C637        O641   1.266       .  A
C640        C689   1.479       .  S
C643        O644   1.286       .  A
C643        C732   1.479       .  S
O645        C661   1.266       .  A
O645       Zn651   1.935       .  S
C646        O662   1.266       .  A
C646        O659   1.282       .  A
O647        C660   1.280       .  A
O647       Cd654   2.173       .  S
O648        C666   1.287       .  A
O648       Cd657   2.071       .  S
O649        C663   1.283       .  A
O649       Cd653   2.135       .  S
O650        C661   1.270       .  A
O650       Cd653   2.050       .  S
Zn651       O662   1.944       .  S
Zn651       O664   1.953       .  S
Zn651       O656   1.793       .  S
O652        C663   1.269       .  A
O652       Cd657   2.017       .  S
Cd653       O655   2.110       .  S
Cd653       O656   1.957       .  S
Cd654       O658   2.075       .  S
Cd654       O667   2.120       .  S
Cd654       O656   1.983       .  S
O655        C665   1.289       .  A
O656       Cd657   1.958       .  S
Cd657       O659   2.159       .  S
O658        C665   1.277       .  A
C660        O664   1.266       .  A
C661        C707   1.425       .  S
C665        C688   1.469       .  S
C666        O667   1.286       .  A
O668        C684   1.266       .  A
O668       Zn674   1.934       .  S
C669        O685   1.266       .  A
C669        O682   1.282       .  A
O670        C683   1.280       .  A
O670       Cd677   2.173       .  S
O671        C689   1.287       .  A
O671       Cd680   2.071       .  S
O672        C686   1.283       .  A
O672       Cd676   2.135       .  S
O673        C684   1.270       .  A
O673       Cd676   2.050       .  S
Zn674       O685   1.944       .  S
Zn674       O687   1.953       .  S
Zn674       O679   1.793       .  S
O675        C686   1.269       .  A
O675       Cd680   2.017       .  S
Cd676       O678   2.110       .  S
Cd676       O679   1.957       .  S
Cd677       O681   2.076       .  S
Cd677       O690   2.120       .  S
Cd677       O679   1.983       .  S
O678        C688   1.288       .  A
O679       Cd680   1.958       .  S
Cd680       O682   2.159       .  S
O681        C688   1.277       .  A
C683        O687   1.266       .  A
C684        C730   1.425       .  S
C689        O690   1.286       .  A
O691        C707   1.266       .  A
O691       Zn697   1.935       .  S
C692        O708   1.266       .  A
C692       O1441   1.282   1_455  A
O694        C712   1.287       .  A
O694       Cd703   2.071       .  S
O695        C709   1.283       .  A
O695      Cd1435   2.135       .  S
O696        C707   1.270       .  A
O696       Cd699   2.050       .  S
Zn697       O708   1.944       .  S
Zn697       O710   1.953       .  S
Zn697       O702   1.793       .  S
O698        C709   1.269       .  A
O698       Cd703   2.017       .  S
Cd699      O1431   2.135       .  S
Cd699       O701   2.110       .  S
Cd699       O702   1.957       .  S
Cd700       O704   2.076       .  S
Cd700      O1449   2.120   1_455  S
Cd700       O702   1.983       .  S
O701        C711   1.288       .  A
O702      Cd1439   1.957   1_455  S
Cd703       O705   2.159       .  S
Cd703      O1438   1.957       .  S
O704        C711   1.277       .  A
O705       C1428   1.282       .  A
C706        O710   1.266       .  A
C711        C734   1.469       .  S
C712        O713   1.286       .  A
O713      Cd1436   2.120       .  S
O714        C730   1.266       .  A
O714       Zn720   1.934       .  S
C715        O731   1.266       .  A
O716        C729   1.280       .  A
O716       Cd723   2.173       .  S
O717        C735   1.287       .  A
O717       Cd726   2.071       .  S
O718        C732   1.283       .  A
O719        C730   1.270       .  A
O719       Cd722   2.050       .  S
Zn720       O731   1.944       .  S
Zn720       O733   1.953       .  S
Zn720       O725   1.793       .  S
O721        C732   1.269       .  A
O721       Cd726   2.017       .  S
Cd722       O724   2.110       .  S
Cd722       O725   1.957       .  S
Cd723       O727   2.075       .  S
Cd723       O725   1.983       .  S
O724        C734   1.288       .  A
Cd726       O728   2.159       .  S
O727        C734   1.277       .  A
C729        O733   1.266       .  A
C735        O736   1.286       .  A
O737        C753   1.266       .  A
O737       Zn743   1.944       .  S
C738        O754   1.266       .  A
C738        O751   1.270       .  A
C738        C784   1.425       .  S
O739        C752   1.280       .  A
O739       Cd746   2.173       .  S
O740        C758   1.288       .  A
O740       Cd749   2.110       .  S
O741        C755   1.269       .  A
O741       Cd745   2.017       .  S
O742       Cd745   2.159       .  S
Zn743       O754   1.934       .  S
Zn743       O756   1.953       .  S
Zn743       O748   1.793       .  S
O744        C755   1.283   1_455  A
Cd745       O747   2.071       .  S
Cd746       O759   2.075       .  S
Cd746       O748   1.983       .  S
O747        C757   1.287       .  A
O748       Cd749   1.957       .  S
Cd749       O751   2.050       .  S
O750        C757   1.286       .  A
C752        O756   1.266       .  A
C752       C1037   1.485       .  S
C753       C1097   1.485       .  S
C755        C895   1.479       .  S
C757        C847   1.479       .  S
C758        O759   1.277       .  A
C758        C781   1.469       .  S
O760        C776   1.266   1_556  A
O760       Zn766   1.944       .  S
C761        O777   1.266       .  A
C761        O774   1.270       .  A
C761        C807   1.425       .  S
O762        C775   1.280       .  A
O762       Cd769   2.173       .  S
O763        C781   1.288       .  A
O763       Cd772   2.110       .  S
O764        C778   1.269       .  A
O764       Cd768   2.017       .  S
O765        C776   1.282       .  A
O765       Cd768   2.159   1_554  S
Zn766       O777   1.934       .  S
Zn766       O779   1.953       .  S
Zn766       O771   1.793       .  S
O767        C778   1.283       .  A
O767       Cd772   2.135       .  S
Cd768       O770   2.071       .  S
Cd768       O771   1.957       .  S
Cd769       O773   2.120       .  S
Cd769       O782   2.075       .  S
Cd769       O771   1.983       .  S
O770        C780   1.287       .  A
O771       Cd772   1.957       .  S
Cd772       O774   2.050       .  S
O773        C780   1.286       .  A
C775        O779   1.266       .  A
C775       C1060   1.485   1_556  S
C776       C1028   1.485       .  S
C778        C872   1.479       .  S
C780        C916   1.479       .  S
C781        O782   1.277       .  A
O783        C799   1.266       .  A
O783       Zn789   1.944       .  S
C784        O800   1.266       .  A
C784        O797   1.270       .  A
O785       C1166   1.280       .  A
O785      Cd1160   2.173       .  S
O786        C804   1.288       .  A
O786       Cd795   2.110       .  S
O787        C801   1.269       .  A
O787       Cd791   2.017       .  S
O788        C799   1.282       .  A
O788       Cd791   2.159       .  S
Zn789       O800   1.934       .  S
Zn789       O802   1.953       .  S
Zn789       O794   1.793       .  S
O790        C801   1.283       .  A
O790       Cd795   2.135       .  S
Cd791       O793   2.071       .  S
Cd791       O794   1.958       .  S
Cd792      O1153   2.173       .  S
Cd792       O796   2.119       .  S
Cd792       O805   2.075       .  S
Cd792       O794   1.983       .  S
O793        C803   1.287       .  A
O794       Cd795   1.957       .  S
Cd795       O797   2.050       .  S
O796        C803   1.286       .  A
C798       O1153   1.280       .  A
C798        O802   1.266       .  A
C798       C1083   1.485       .  S
C799       C1051   1.485       .  S
C801        C849   1.479       .  S
C803        C893   1.479       .  S
C804        O805   1.277       .  A
C804        C827   1.469       .  S
O806        C822   1.266   1_556  A
O806       Zn812   1.944       .  S
C807        O823   1.266       .  A
C807        O820   1.270       .  A
O808        C821   1.280       .  A
O808       Cd815   2.173       .  S
O809        C827   1.288       .  A
O809       Cd818   2.110       .  S
O810        C824   1.269       .  A
O810       Cd814   2.017       .  S
O811       C1190   1.282   1_545  A
O811       Cd814   2.159   1_554  S
Zn812       O823   1.934       .  S
Zn812       O825   1.953       .  S
Zn812       O817   1.793       .  S
O813        C824   1.283       .  A
O813      Cd1186   2.135   1_545  S
Cd814       O816   2.071       .  S
Cd814      O1185   1.958   1_545  S
Cd815      O1187   2.120       .  S
Cd815       O828   2.076       .  S
Cd815       O817   1.983       .  S
O816        C826   1.287       .  A
O817      Cd1182   1.958       .  S
O817       Cd818   1.957       .  S
Cd818      O1181   2.135       .  S
Cd818       O820   2.050       .  S
O819        C826   1.286       .  A
O819      Cd1183   2.120   1_545  S
C821        O825   1.266       .  A
C821       C1014   1.485   1_556  S
C822       O1179   1.282       .  A
C822       C1074   1.485       .  S
C824        C918   1.479       .  S
C826        C870   1.479       .  S
C827        O828   1.277       .  A
O829        C845   1.266       .  A
O829       Zn835   1.944       .  S
C830        O846   1.266       .  A
C830        O843   1.270       .  A
C830        C876   1.425       .  S
O831        C844   1.280       .  A
O831       Cd838   2.173       .  S
O832        C850   1.288       .  A
O832       Cd841   2.110       .  S
O833        C847   1.269       .  A
O833       Cd837   2.017       .  S
O834        C845   1.282       .  A
O834       Cd837   2.159       .  S
Zn835       O846   1.934       .  S
Zn835       O848   1.953       .  S
Zn835       O840   1.793       .  S
O836        C847   1.283       .  A
O836       Cd841   2.135       .  S
Cd837       O839   2.071       .  S
Cd837       O840   1.957       .  S
Cd838       O842   2.120       .  S
Cd838       O851   2.075       .  S
Cd838       O840   1.983       .  S
O839        C849   1.287       .  A
O840       Cd841   1.956       .  S
Cd841       O843   2.051       .  S
O842        C849   1.286       .  A
C844        O848   1.266       .  A
C844        C991   1.485       .  S
C845        C959   1.485       .  S
C850        O851   1.277       .  A
C850        C873   1.469       .  S
O852        C868   1.266   1_556  A
O852       Zn858   1.944       .  S
C853        O869   1.266       .  A
C853        O866   1.270       .  A
C853        C899   1.425       .  S
O854        C867   1.280       .  A
O854       Cd861   2.173       .  S
O855        C873   1.288       .  A
O855       Cd864   2.110       .  S
O856        C870   1.269       .  A
O856       Cd860   2.017       .  S
O857        C868   1.282       .  A
O857       Cd860   2.159   1_554  S
Zn858       O869   1.934       .  S
Zn858       O871   1.953       .  S
Zn858       O863   1.793       .  S
O859        C870   1.283       .  A
O859       Cd864   2.135       .  S
Cd860       O862   2.071       .  S
Cd860       O863   1.958       .  S
Cd861       O865   2.119       .  S
Cd861       O874   2.075       .  S
Cd861       O863   1.983       .  S
O862        C872   1.287       .  A
O863       Cd864   1.957       .  S
Cd864       O866   2.050       .  S
O865        C872   1.286       .  A
C867        O871   1.266       .  A
C867        C922   1.485   1_556  S
C868        C982   1.485       .  S
C873        O874   1.277       .  A
O875        C891   1.266       .  A
O875       Zn881   1.944       .  S
C876        O892   1.266       .  A
C876        O889   1.270       .  A
O877        C890   1.280       .  A
O877       Cd884   2.173       .  S
O878        C896   1.288       .  A
O878       Cd887   2.110       .  S
O879        C893   1.269       .  A
O879       Cd883   2.017       .  S
O880       C1259   1.282       .  A
O880       Cd883   2.159       .  S
Zn881       O892   1.935       .  S
Zn881       O894   1.953       .  S
Zn881       O886   1.793       .  S
O882       C1261   1.283   1_545  A
O882       Cd887   2.135       .  S
Cd883       O885   2.071       .  S
Cd883      O1254   1.957       .  S
Cd884      O1256   2.119   1_545  S
Cd884       O897   2.076       .  S
Cd884       O886   1.983       .  S
O885        C895   1.287       .  A
O886      Cd1251   1.957   1_545  S
O886       Cd887   1.956       .  S
Cd887       O889   2.050       .  S
O888        C895   1.286       .  A
O888      Cd1252   2.119       .  S
C890        O894   1.266       .  A
C890        C945   1.485       .  S
C891       O1248   1.282       .  A
C891       C1005   1.485       .  S
C893       O1250   1.283       .  A
C896        O897   1.277       .  A
C896        C919   1.469       .  S
O898        C914   1.266   1_556  A
O898       Zn904   1.944       .  S
C899        O915   1.266       .  A
C899        O912   1.270       .  A
O900        C913   1.280       .  A
O900       Cd907   2.173       .  S
O901        C919   1.288       .  A
O901       Cd910   2.110       .  S
O902        C916   1.269       .  A
O902       Cd906   2.017       .  S
O903       Cd906   2.159   1_554  S
Zn904       O915   1.934       .  S
Zn904       O917   1.953       .  S
Zn904       O909   1.793       .  S
O905        C916   1.283       .  A
Cd906       O908   2.071       .  S
Cd907       O920   2.075       .  S
Cd907       O909   1.984       .  S
O908        C918   1.287       .  A
O909       Cd910   1.957       .  S
Cd910       O912   2.050       .  S
O911        C918   1.286       .  A
C913        O917   1.266       .  A
C913        C968   1.485   1_556  S
C914        C936   1.485       .  S
C919        O920   1.277       .  A
O921        C937   1.266       .  A
O921       Zn927   1.934       .  S
C922        O938   1.266       .  A
C922        O935   1.282       .  A
O923        C936   1.280       .  A
O923       Cd930   2.173       .  S
O924        C942   1.287       .  A
O924       Cd933   2.071       .  S
O925        C939   1.283       .  A
O925       Cd929   2.135       .  S
O926        C937   1.270       .  A
O926       Cd929   2.050       .  S
Zn927       O938   1.944       .  S
Zn927       O940   1.953       .  S
Zn927       O932   1.794       .  S
O928        C939   1.269       .  A
O928       Cd933   2.017       .  S
Cd929       O931   2.110       .  S
Cd929       O932   1.957       .  S
Cd930       O934   2.076       .  S
Cd930       O943   2.120       .  S
Cd930       O932   1.984       .  S
O931        C941   1.288       .  A
O932       Cd933   1.958       .  S
Cd933       O935   2.159       .  S
O934        C941   1.277       .  A
C936        O940   1.266       .  A
C937        C983   1.425       .  S
C939       C1034   1.479       .  S
C941        C964   1.469       .  S
C942        O943   1.286       .  A
C942       C1077   1.479       .  S
O944        C960   1.266       .  A
O944       Zn950   1.934       .  S
C945        O961   1.266       .  A
O946        C959   1.280       .  A
O946       Cd953   2.173       .  S
O947        C965   1.287       .  A
O947       Cd956   2.070       .  S
O948        C962   1.283       .  A
O949        C960   1.270       .  A
O949       Cd952   2.051       .  S
Zn950       O961   1.944       .  S
Zn950       O963   1.953       .  S
Zn950       O955   1.793       .  S
O951        C962   1.269       .  A
O951       Cd956   2.017       .  S
Cd952       O954   2.110       .  S
Cd952       O955   1.957       .  S
Cd953       O957   2.075       .  S
Cd953       O955   1.983       .  S
O954        C964   1.289       .  A
Cd956       O958   2.159       .  S
O957        C964   1.277       .  A
C959        O963   1.266       .  A
C960       C1006   1.425       .  S
C962       C1103   1.479       .  S
C965        O966   1.286       .  A
C965       C1054   1.479       .  S
O967        C983   1.266       .  A
O967       Zn973   1.935       .  S
C968        O984   1.266       .  A
C968       O1349   1.282       .  A
O969        C982   1.280       .  A
O969       Cd976   2.173       .  S
O970        C988   1.287       .  A
O970       Cd979   2.071       .  S
O971       C1353   1.283   1_545  A
O971       Cd975   2.135       .  S
O972        C983   1.270       .  A
O972       Cd975   2.050       .  S
Zn973       O984   1.944       .  S
Zn973       O986   1.953       .  S
Zn973       O978   1.793       .  S
O974        C985   1.269       .  A
O974       Cd979   2.017       .  S
Cd975       O977   2.110       .  S
Cd975       O978   1.957       .  S
Cd976       O980   2.076       .  S
Cd976      O1357   2.119   1_545  S
Cd976       O978   1.983       .  S
O977        C987   1.288       .  A
O978      Cd1347   1.958   1_545  S
Cd979       O981   2.159       .  S
Cd979      O1346   1.958       .  S
O980        C987   1.277       .  A
O981       C1336   1.282       .  A
C982        O986   1.266       .  A
C985       O1339   1.283       .  A
C985       C1080   1.479       .  S
C987       C1010   1.469       .  S
C988        O989   1.286       .  A
C988       C1031   1.479       .  S
O989      Cd1344   2.119       .  S
O990       C1006   1.266       .  A
O990       Zn996   1.935       .  S
C991       O1007   1.266       .  A
C991       O1004   1.282       .  A
O992       C1005   1.280       .  A
O992       Cd999   2.173       .  S
O993       C1011   1.287       .  A
O993      Cd1002   2.071       .  S
O994       C1008   1.283       .  A
O994       Cd998   2.135       .  S
O995       C1006   1.270       .  A
O995       Cd998   2.050       .  S
Zn996      O1007   1.944       .  S
Zn996      O1009   1.953       .  S
Zn996      O1001   1.793       .  S
O997       C1008   1.269       .  A
O997      Cd1002   2.017       .  S
Cd998      O1000   2.110       .  S
Cd998      O1001   1.956       .  S
Cd999      O1003   2.076       .  S
Cd999      O1012   2.119       .  S
Cd999      O1001   1.983       .  S
O1000      C1010   1.288       .  A
O1001     Cd1002   1.957       .  S
Cd1002     O1004   2.159       .  S
O1003      C1010   1.277       .  A
C1005      O1009   1.266       .  A
C1008      C1057   1.479       .  S
C1011      O1012   1.286       .  A
C1011      C1100   1.479       .  S
O1013      C1029   1.266       .  A
O1013     Zn1019   1.935       .  S
C1014      O1030   1.266       .  A
C1014      O1027   1.282       .  A
O1015      C1028   1.280       .  A
O1015     Cd1022   2.173       .  S
O1016      C1034   1.287       .  A
O1016     Cd1025   2.071       .  S
O1017      C1031   1.283       .  A
O1017     Cd1021   2.135       .  S
O1018      C1029   1.270       .  A
O1018     Cd1021   2.050       .  S
Zn1019     O1030   1.944       .  S
Zn1019     O1032   1.953       .  S
Zn1019     O1024   1.793       .  S
O1020      C1031   1.269       .  A
O1020     Cd1025   2.017       .  S
Cd1021     O1023   2.110       .  S
Cd1021     O1024   1.957       .  S
Cd1022     O1026   2.075       .  S
Cd1022     O1035   2.120       .  S
Cd1022     O1024   1.983       .  S
O1023      C1033   1.289       .  A
O1024     Cd1025   1.958       .  S
Cd1025     O1027   2.159       .  S
O1026      C1033   1.277       .  A
C1028      O1032   1.266       .  A
C1029      C1075   1.425       .  S
C1033      C1056   1.469       .  S
C1034      O1035   1.286       .  A
O1036      C1052   1.266       .  A
O1036     Zn1042   1.934       .  S
C1037      O1053   1.266       .  A
C1037      O1050   1.282       .  A
O1038      C1051   1.280       .  A
O1038     Cd1045   2.173       .  S
O1039      C1057   1.287       .  A
O1039     Cd1048   2.071       .  S
O1040      C1054   1.283       .  A
O1040     Cd1044   2.135       .  S
O1041      C1052   1.270       .  A
O1041     Cd1044   2.050       .  S
Zn1042     O1053   1.944       .  S
Zn1042     O1055   1.953       .  S
Zn1042     O1047   1.793       .  S
O1043      C1054   1.269       .  A
O1043     Cd1048   2.017       .  S
Cd1044     O1046   2.110       .  S
Cd1044     O1047   1.957       .  S
Cd1045     O1049   2.076       .  S
Cd1045     O1058   2.120       .  S
Cd1045     O1047   1.983       .  S
O1046      C1056   1.288       .  A
O1047     Cd1048   1.958       .  S
Cd1048     O1050   2.159       .  S
O1049      C1056   1.277       .  A
C1051      O1055   1.266       .  A
C1052      C1098   1.425       .  S
C1057      O1058   1.286       .  A
O1059      C1075   1.266       .  A
O1059     Zn1065   1.935       .  S
C1060      O1076   1.266       .  A
O1061      C1442   1.280       .  A
O1061     Cd1436   2.173       .  S
O1062      C1080   1.287       .  A
O1062     Cd1071   2.071       .  S
O1063      C1077   1.283   1_455  A
O1064      C1075   1.270       .  A
O1064     Cd1067   2.050       .  S
Zn1065     O1076   1.944       .  S
Zn1065     O1078   1.953       .  S
Zn1065     O1070   1.793       .  S
O1066      C1077   1.269       .  A
O1066     Cd1071   2.017       .  S
Cd1067     O1069   2.110       .  S
Cd1067     O1070   1.957       .  S
Cd1068     O1429   2.173       .  S
Cd1068     O1072   2.076       .  S
Cd1068     O1070   1.983       .  S
O1069      C1079   1.288       .  A
Cd1071     O1073   2.159       .  S
O1072      C1079   1.277       .  A
C1074      O1429   1.280       .  A
C1074      O1078   1.266       .  A
C1079      C1102   1.469       .  S
C1080      O1081   1.286       .  A
O1082      C1098   1.266       .  A
O1082     Zn1088   1.934       .  S
C1083      O1099   1.266       .  A
C1083      O1464   1.282       .  A
O1084      C1097   1.280       .  A
O1084     Cd1091   2.173       .  S
O1085      C1103   1.287       .  A
O1085     Cd1094   2.071       .  S
O1086      C1100   1.283       .  A
O1086     Cd1458   2.135   1_545  S
O1087      C1098   1.270       .  A
O1087     Cd1090   2.050       .  S
Zn1088     O1099   1.944       .  S
Zn1088     O1101   1.953       .  S
Zn1088     O1093   1.793       .  S
O1089      C1100   1.269       .  A
O1089     Cd1094   2.017       .  S
Cd1090     O1454   2.135       .  S
Cd1090     O1092   2.110       .  S
Cd1090     O1093   1.957       .  S
Cd1091     O1095   2.075       .  S
Cd1091     O1472   2.119       .  S
Cd1091     O1093   1.983       .  S
O1092      C1102   1.288       .  A
O1093     Cd1462   1.958       .  S
Cd1094     O1096   2.159       .  S
Cd1094     O1461   1.958   1_545  S
O1095      C1102   1.277       .  A
O1096      C1451   1.282   1_545  A
C1097      O1101   1.266       .  A
C1103      O1104   1.286       .  A
O1104     Cd1459   2.119   1_545  S
O1105      C1121   1.266       .  A
O1105     Zn1111   1.944       .  S
C1106      O1122   1.266       .  A
C1106      O1119   1.270       .  A
C1106      C1152   1.425       .  S
O1107      C1120   1.280       .  A
O1107     Cd1114   2.173       .  S
O1108      C1126   1.288       .  A
O1108     Cd1117   2.110       .  S
O1109      C1123   1.269       .  A
O1109     Cd1113   2.017       .  S
O1110     Cd1113   2.159       .  S
Zn1111     O1122   1.934       .  S
Zn1111     O1124   1.953       .  S
Zn1111     O1116   1.793       .  S
O1112      C1123   1.283   1_455  A
Cd1113     O1115   2.071       .  S
Cd1114     O1127   2.075       .  S
Cd1114     O1116   1.983       .  S
O1115      C1125   1.287       .  A
O1116     Cd1117   1.957       .  S
Cd1117     O1119   2.050       .  S
O1118      C1125   1.286       .  A
C1120      O1124   1.266       .  A
C1120      C1405   1.485       .  S
C1121      C1465   1.485       .  S
C1123      C1263   1.479       .  S
C1125      C1215   1.479       .  S
C1126      O1127   1.277       .  A
C1126      C1149   1.469       .  S
O1128      C1144   1.266   1_556  A
O1128     Zn1134   1.944       .  S
C1129      O1145   1.266       .  A
C1129      O1142   1.270       .  A
C1129      C1175   1.425       .  S
O1130      C1143   1.280       .  A
O1130     Cd1137   2.173       .  S
O1131      C1149   1.288       .  A
O1131     Cd1140   2.110       .  S
O1132      C1146   1.269       .  A
O1132     Cd1136   2.017       .  S
O1133      C1144   1.282       .  A
O1133     Cd1136   2.159   1_554  S
Zn1134     O1145   1.934       .  S
Zn1134     O1147   1.953       .  S
Zn1134     O1139   1.793       .  S
O1135      C1146   1.283       .  A
O1135     Cd1140   2.135       .  S
Cd1136     O1138   2.071       .  S
Cd1136     O1139   1.957       .  S
Cd1137     O1141   2.120       .  S
Cd1137     O1150   2.075       .  S
Cd1137     O1139   1.983       .  S
O1138      C1148   1.287       .  A
O1139     Cd1140   1.957       .  S
Cd1140     O1142   2.050       .  S
O1141      C1148   1.286       .  A
C1143      O1147   1.266       .  A
C1143      C1428   1.485   1_556  S
C1144      C1396   1.485       .  S
C1146      C1240   1.479       .  S
C1148      C1284   1.479       .  S
C1149      O1150   1.277       .  A
O1151      C1167   1.266       .  A
O1151     Zn1157   1.944       .  S
C1152      O1168   1.266       .  A
C1152      O1165   1.270       .  A
O1154      C1172   1.288       .  A
O1154     Cd1163   2.110       .  S
O1155      C1169   1.269       .  A
O1155     Cd1159   2.017       .  S
O1156      C1167   1.282       .  A
O1156     Cd1159   2.159       .  S
Zn1157     O1168   1.934       .  S
Zn1157     O1170   1.953       .  S
Zn1157     O1162   1.793       .  S
O1158      C1169   1.283       .  A
O1158     Cd1163   2.135       .  S
Cd1159     O1161   2.071       .  S
Cd1159     O1162   1.958       .  S
Cd1160     O1164   2.119       .  S
Cd1160     O1173   2.075       .  S
Cd1160     O1162   1.983       .  S
O1161      C1171   1.287       .  A
O1162     Cd1163   1.957       .  S
Cd1163     O1165   2.050       .  S
O1164      C1171   1.286       .  A
C1166      O1170   1.266       .  A
C1166      C1451   1.485       .  S
C1167      C1419   1.485       .  S
C1169      C1217   1.479       .  S
C1171      C1261   1.479       .  S
C1172      O1173   1.277       .  A
C1172      C1195   1.469       .  S
O1174      C1190   1.266   1_556  A
O1174     Zn1180   1.944       .  S
C1175      O1191   1.266       .  A
C1175      O1188   1.270       .  A
O1176      C1189   1.280       .  A
O1176     Cd1183   2.173       .  S
O1177      C1195   1.288       .  A
O1177     Cd1186   2.110       .  S
O1178      C1192   1.269       .  A
O1178     Cd1182   2.017       .  S
O1179     Cd1182   2.159   1_554  S
Zn1180     O1191   1.934       .  S
Zn1180     O1193   1.953       .  S
Zn1180     O1185   1.793       .  S
O1181      C1192   1.283       .  A
Cd1182     O1184   2.071       .  S
Cd1183     O1196   2.076       .  S
Cd1183     O1185   1.983       .  S
O1184      C1194   1.287       .  A
O1185     Cd1186   1.957       .  S
Cd1186     O1188   2.050       .  S
O1187      C1194   1.286       .  A
C1189      O1193   1.266       .  A
C1189      C1382   1.485   1_556  S
C1190      C1442   1.485       .  S
C1192      C1286   1.479       .  S
C1194      C1238   1.479       .  S
C1195      O1196   1.277       .  A
O1197      C1213   1.266       .  A
O1197     Zn1203   1.944       .  S
C1198      O1214   1.266       .  A
C1198      O1211   1.270       .  A
C1198      C1244   1.425       .  S
O1199      C1212   1.280       .  A
O1199     Cd1206   2.173       .  S
O1200      C1218   1.288       .  A
O1200     Cd1209   2.110       .  S
O1201      C1215   1.269       .  A
O1201     Cd1205   2.017       .  S
O1202      C1213   1.282       .  A
O1202     Cd1205   2.159       .  S
Zn1203     O1214   1.934       .  S
Zn1203     O1216   1.953       .  S
Zn1203     O1208   1.793       .  S
O1204      C1215   1.283       .  A
O1204     Cd1209   2.135       .  S
Cd1205     O1207   2.071       .  S
Cd1205     O1208   1.957       .  S
Cd1206     O1210   2.120       .  S
Cd1206     O1219   2.075       .  S
Cd1206     O1208   1.983       .  S
O1207      C1217   1.287       .  A
O1208     Cd1209   1.956       .  S
Cd1209     O1211   2.051       .  S
O1210      C1217   1.286       .  A
C1212      O1216   1.266       .  A
C1212      C1359   1.485       .  S
C1213      C1327   1.485       .  S
C1218      O1219   1.277       .  A
C1218      C1241   1.469       .  S
O1220      C1236   1.266   1_556  A
O1220     Zn1226   1.944       .  S
C1221      O1237   1.266       .  A
C1221      O1234   1.270       .  A
C1221      C1267   1.425       .  S
O1222      C1235   1.280       .  A
O1222     Cd1229   2.173       .  S
O1223      C1241   1.288       .  A
O1223     Cd1232   2.110       .  S
O1224      C1238   1.269       .  A
O1224     Cd1228   2.017       .  S
O1225      C1236   1.282       .  A
O1225     Cd1228   2.159   1_554  S
Zn1226     O1237   1.934       .  S
Zn1226     O1239   1.953       .  S
Zn1226     O1231   1.793       .  S
O1227      C1238   1.283       .  A
O1227     Cd1232   2.135       .  S
Cd1228     O1230   2.071       .  S
Cd1228     O1231   1.958       .  S
Cd1229     O1233   2.119       .  S
Cd1229     O1242   2.075       .  S
Cd1229     O1231   1.983       .  S
O1230      C1240   1.287       .  A
O1231     Cd1232   1.957       .  S
Cd1232     O1234   2.050       .  S
O1233      C1240   1.286       .  A
C1235      O1239   1.266       .  A
C1235      C1290   1.485   1_556  S
C1236      C1350   1.485       .  S
C1241      O1242   1.277       .  A
O1243      C1259   1.266       .  A
O1243     Zn1249   1.944       .  S
C1244      O1260   1.266       .  A
C1244      O1257   1.270       .  A
O1245      C1258   1.280       .  A
O1245     Cd1252   2.173       .  S
O1246      C1264   1.288       .  A
O1246     Cd1255   2.110       .  S
O1247      C1261   1.269       .  A
O1247     Cd1251   2.017       .  S
O1248     Cd1251   2.159   1_545  S
Zn1249     O1260   1.935       .  S
Zn1249     O1262   1.953       .  S
Zn1249     O1254   1.793       .  S
O1250     Cd1255   2.135       .  S
Cd1251     O1253   2.071       .  S
Cd1252     O1265   2.076       .  S
Cd1252     O1254   1.983       .  S
O1253      C1263   1.287       .  A
O1254     Cd1255   1.956       .  S
Cd1255     O1257   2.050       .  S
O1256      C1263   1.286       .  A
C1258      O1262   1.266       .  A
C1258      C1313   1.485       .  S
C1259      C1373   1.485       .  S
C1264      O1265   1.277       .  A
C1264      C1287   1.469       .  S
O1266      C1282   1.266   1_556  A
O1266     Zn1272   1.944       .  S
C1267      O1283   1.266       .  A
C1267      O1280   1.270       .  A
O1268      C1281   1.280       .  A
O1268     Cd1275   2.173       .  S
O1269      C1287   1.288       .  A
O1269     Cd1278   2.110       .  S
O1270      C1284   1.269       .  A
O1270     Cd1274   2.017       .  S
O1271     Cd1274   2.159   1_554  S
Zn1272     O1283   1.934       .  S
Zn1272     O1285   1.953       .  S
Zn1272     O1277   1.793       .  S
O1273      C1284   1.283       .  A
Cd1274     O1276   2.071       .  S
Cd1275     O1288   2.075       .  S
Cd1275     O1277   1.984       .  S
O1276      C1286   1.287       .  A
O1277     Cd1278   1.957       .  S
Cd1278     O1280   2.050       .  S
O1279      C1286   1.286       .  A
C1281      O1285   1.266       .  A
C1281      C1336   1.485   1_556  S
C1282      C1304   1.485       .  S
C1287      O1288   1.277       .  A
O1289      C1305   1.266       .  A
O1289     Zn1295   1.934       .  S
C1290      O1306   1.266       .  A
C1290      O1303   1.282       .  A
O1291      C1304   1.280       .  A
O1291     Cd1298   2.173       .  S
O1292      C1310   1.287       .  A
O1292     Cd1301   2.071       .  S
O1293      C1307   1.283       .  A
O1293     Cd1297   2.135       .  S
O1294      C1305   1.270       .  A
O1294     Cd1297   2.050       .  S
Zn1295     O1306   1.944       .  S
Zn1295     O1308   1.953       .  S
Zn1295     O1300   1.794       .  S
O1296      C1307   1.269       .  A
O1296     Cd1301   2.017       .  S
Cd1297     O1299   2.110       .  S
Cd1297     O1300   1.957       .  S
Cd1298     O1302   2.076       .  S
Cd1298     O1311   2.120       .  S
Cd1298     O1300   1.984       .  S
O1299      C1309   1.288       .  A
O1300     Cd1301   1.958       .  S
Cd1301     O1303   2.159       .  S
O1302      C1309   1.277       .  A
C1304      O1308   1.266       .  A
C1305      C1351   1.425       .  S
C1307      C1402   1.479       .  S
C1309      C1332   1.469       .  S
C1310      O1311   1.286       .  A
C1310      C1445   1.479       .  S
O1312      C1328   1.266       .  A
O1312     Zn1318   1.934       .  S
C1313      O1329   1.266       .  A
O1314      C1327   1.280       .  A
O1314     Cd1321   2.173       .  S
O1315      C1333   1.287       .  A
O1315     Cd1324   2.070       .  S
O1316      C1330   1.283       .  A
O1317      C1328   1.270       .  A
O1317     Cd1320   2.051       .  S
Zn1318     O1329   1.944       .  S
Zn1318     O1331   1.953       .  S
Zn1318     O1323   1.793       .  S
O1319      C1330   1.269       .  A
O1319     Cd1324   2.017       .  S
Cd1320     O1322   2.110       .  S
Cd1320     O1323   1.957       .  S
Cd1321     O1325   2.075       .  S
Cd1321     O1323   1.983       .  S
O1322      C1332   1.289       .  A
Cd1324     O1326   2.159       .  S
O1325      C1332   1.277       .  A
C1327      O1331   1.266       .  A
C1328      C1374   1.425       .  S
C1330      C1471   1.479       .  S
C1333      O1334   1.286       .  A
C1333      C1422   1.479       .  S
O1335      C1351   1.266       .  A
O1335     Zn1341   1.935       .  S
C1336      O1352   1.266       .  A
O1337      C1350   1.280       .  A
O1337     Cd1344   2.173       .  S
O1338      C1356   1.287       .  A
O1338     Cd1347   2.071       .  S
O1339     Cd1343   2.135       .  S
O1340      C1351   1.270       .  A
O1340     Cd1343   2.050       .  S
Zn1341     O1352   1.944       .  S
Zn1341     O1354   1.953       .  S
Zn1341     O1346   1.793       .  S
O1342      C1353   1.269       .  A
O1342     Cd1347   2.017       .  S
Cd1343     O1345   2.110       .  S
Cd1343     O1346   1.957       .  S
Cd1344     O1348   2.076       .  S
Cd1344     O1346   1.983       .  S
O1345      C1355   1.288       .  A
Cd1347     O1349   2.159   1_565  S
O1348      C1355   1.277       .  A
C1350      O1354   1.266       .  A
C1353      C1448   1.479       .  S
C1355      C1378   1.469       .  S
C1356      O1357   1.286       .  A
C1356      C1399   1.479       .  S
O1358      C1374   1.266       .  A
O1358     Zn1364   1.935       .  S
C1359      O1375   1.266       .  A
C1359      O1372   1.282       .  A
O1360      C1373   1.280       .  A
O1360     Cd1367   2.173       .  S
O1361      C1379   1.287       .  A
O1361     Cd1370   2.071       .  S
O1362      C1376   1.283       .  A
O1362     Cd1366   2.135       .  S
O1363      C1374   1.270       .  A
O1363     Cd1366   2.051       .  S
Zn1364     O1375   1.944       .  S
Zn1364     O1377   1.953       .  S
Zn1364     O1369   1.793       .  S
O1365      C1376   1.269       .  A
O1365     Cd1370   2.017       .  S
Cd1366     O1368   2.110       .  S
Cd1366     O1369   1.956       .  S
Cd1367     O1371   2.076       .  S
Cd1367     O1380   2.119       .  S
Cd1367     O1369   1.983       .  S
O1368      C1378   1.288       .  A
O1369     Cd1370   1.957       .  S
Cd1370     O1372   2.159       .  S
O1371      C1378   1.277       .  A
C1373      O1377   1.266       .  A
C1376      C1425   1.479       .  S
C1379      O1380   1.286       .  A
C1379      C1468   1.479       .  S
O1381      C1397   1.266       .  A
O1381     Zn1387   1.935       .  S
C1382      O1398   1.266       .  A
C1382      O1395   1.282       .  A
O1383      C1396   1.280       .  A
O1383     Cd1390   2.173       .  S
O1384      C1402   1.287       .  A
O1384     Cd1393   2.071       .  S
O1385      C1399   1.283       .  A
O1385     Cd1389   2.135       .  S
O1386      C1397   1.270       .  A
O1386     Cd1389   2.050       .  S
Zn1387     O1398   1.944       .  S
Zn1387     O1400   1.953       .  S
Zn1387     O1392   1.793       .  S
O1388      C1399   1.269       .  A
O1388     Cd1393   2.017       .  S
Cd1389     O1391   2.110       .  S
Cd1389     O1392   1.957       .  S
Cd1390     O1394   2.075       .  S
Cd1390     O1403   2.120       .  S
Cd1390     O1392   1.983       .  S
O1391      C1401   1.289       .  A
O1392     Cd1393   1.958       .  S
Cd1393     O1395   2.159       .  S
O1394      C1401   1.277       .  A
C1396      O1400   1.266       .  A
C1397      C1443   1.425       .  S
C1401      C1424   1.469       .  S
C1402      O1403   1.286       .  A
O1404      C1420   1.266       .  A
O1404     Zn1410   1.934       .  S
C1405      O1421   1.266       .  A
C1405      O1418   1.282       .  A
O1406      C1419   1.280       .  A
O1406     Cd1413   2.173       .  S
O1407      C1425   1.287       .  A
O1407     Cd1416   2.071       .  S
O1408      C1422   1.283       .  A
O1408     Cd1412   2.135       .  S
O1409      C1420   1.270       .  A
O1409     Cd1412   2.050       .  S
Zn1410     O1421   1.944       .  S
Zn1410     O1423   1.953       .  S
Zn1410     O1415   1.793       .  S
O1411      C1422   1.269       .  A
O1411     Cd1416   2.017       .  S
Cd1412     O1414   2.110       .  S
Cd1412     O1415   1.957       .  S
Cd1413     O1417   2.076       .  S
Cd1413     O1426   2.120       .  S
Cd1413     O1415   1.983       .  S
O1414      C1424   1.288       .  A
O1415     Cd1416   1.958       .  S
Cd1416     O1418   2.159       .  S
O1417      C1424   1.277       .  A
C1419      O1423   1.266       .  A
C1420      C1466   1.425       .  S
C1425      O1426   1.286       .  A
O1427      C1443   1.266       .  A
O1427     Zn1433   1.935       .  S
C1428      O1444   1.266       .  A
O1430      C1448   1.287       .  A
O1430     Cd1439   2.071       .  S
O1431      C1445   1.283   1_455  A
O1432      C1443   1.270       .  A
O1432     Cd1435   2.050       .  S
Zn1433     O1444   1.944       .  S
Zn1433     O1446   1.953       .  S
Zn1433     O1438   1.793       .  S
O1434      C1445   1.269       .  A
O1434     Cd1439   2.017       .  S
Cd1435     O1437   2.110       .  S
Cd1435     O1438   1.957       .  S
Cd1436     O1440   2.076       .  S
Cd1436     O1438   1.983       .  S
O1437      C1447   1.288       .  A
Cd1439     O1441   2.159       .  S
O1440      C1447   1.277       .  A
C1442      O1446   1.266       .  A
C1447      C1470   1.469       .  S
C1448      O1449   1.286       .  A
O1450      C1466   1.266       .  A
O1450     Zn1456   1.934       .  S
C1451      O1467   1.266       .  A
O1452      C1465   1.280       .  A
O1452     Cd1459   2.173       .  S
O1453      C1471   1.287       .  A
O1453     Cd1462   2.071       .  S
O1454      C1468   1.283       .  A
O1455      C1466   1.270       .  A
O1455     Cd1458   2.050       .  S
Zn1456     O1467   1.944       .  S
Zn1456     O1469   1.953       .  S
Zn1456     O1461   1.793       .  S
O1457      C1468   1.269       .  A
O1457     Cd1462   2.017       .  S
Cd1458     O1460   2.110       .  S
Cd1458     O1461   1.957       .  S
Cd1459     O1463   2.075       .  S
Cd1459     O1461   1.983       .  S
O1460      C1470   1.288       .  A
Cd1462     O1464   2.159       .  S
O1463      C1470   1.277       .  A
C1465      O1469   1.266       .  A
C1471      O1472   1.286       .  A
