geometry optimzed in LAMMPS
_audit_creation_date              2020-12-01 
_audit_creation_method            'lammps2cif' 
_symmetry_space_group_name_H-M    'P1' 
_symmetry_Int_Tables_number       1 
_symmetry_cell_setting            triclinic 
loop_ 
_symmetry_equiv_pos_as_xyz 
  x,y,z 
_cell_length_a                    42.13611414 
_cell_length_b                    42.1424450442057 
_cell_length_c                    42.523218871929195 
_cell_angle_alpha                 89.99728208289868 
_cell_angle_beta                  89.9968544276356 
_cell_angle_gamma                 90.00080946326611 
loop_ 
_atom_site_label 
_atom_site_type_symbol 
_atom_site_fract_x 
_atom_site_fract_y 
_atom_site_fract_z 
_atom_site_charge 
Fe1        Fe  0.46963136  0.96618857  0.12631201     1.65800
Fe2        Fe  0.44247765  0.89878862  0.15792367     1.73200
Fe3        Fe  0.39917443  0.93765326  0.10375643     1.54400
O4          O  0.38894799  0.98135290  0.12156982    -0.80100
O5          O  0.41856324  0.86665985  0.12769490    -0.78400
O6          O  0.43691395  0.00292267  0.11648660    -0.82600
O7          O  0.47453697  0.95638704  0.08033341    -0.77500
O8          O  0.37005185  0.91712405  0.13880624    -0.79200
O9          O  0.48325790  0.88657243  0.13490663    -0.82000
C10         C  0.45364887  0.96191827  0.06003336     0.98800
C11         C  0.40667839  0.00510450  0.11711599     1.06200
O12         O  0.43669048  0.93444167  0.12983379    -1.11000
O13         O  0.46682106  0.92707653  0.19184120    -0.73400
O14         O  0.46666041  0.97652152  0.17289708    -0.76900
O15         O  0.42398932  0.95886100  0.06562161    -0.77600
C16         C  0.47086798  0.95707707  0.19512962     0.97700
O17         O  0.50672153  0.93371894  0.13318400    -0.75500
O18         O  0.40101253  0.90868518  0.18070738    -0.80700
C19         C  0.40930487  0.86832466  0.09908428     1.00300
C20         C  0.37398258  0.90967908  0.16772989     1.06200
O21         O  0.40742291  0.89426311  0.08430733    -0.76400
C22         C  0.50667557  0.90394187  0.12807500     1.04500
Fe23       Fe  0.02600631  0.02806433  0.37627262     1.65800
Fe24       Fe  0.05310402  0.09548071  0.40788957     1.73200
Fe25       Fe  0.09647377  0.05662980  0.35376123     1.54400
O26         O  0.10670366  0.01293517  0.37158853    -0.80100
O27         O  0.07702488  0.12761610  0.37767177    -0.78400
O28         O  0.05874720  0.99134571  0.36649501    -0.82600
O29         O  0.02114599  0.03784519  0.33028433    -0.77500
O30         O  0.12555495  0.07717424  0.38882548    -0.79200
O31         O  0.01233461  0.10767435  0.38484641    -0.82000
C32         C  0.04205785  0.03233522  0.31000020     0.98800
C33         C  0.08898209  0.98917596  0.36714274     1.06200
O34         O  0.05893098  0.05982682  0.37981039    -1.11000
O35         O  0.02874419  0.06719136  0.44179689    -0.73400
O36         O  0.02892886  0.01774438  0.42286441    -0.76900
O37         O  0.07170935  0.03541047  0.31561089    -0.77600
C38         C  0.02469685  0.03719155  0.44508853     0.97700
O39         O  0.98889384  0.06051636  0.38309722    -0.75500
O40         O  0.09455802  0.08560895  0.43070342    -0.80700
C41         C  0.08631051  0.12595380  0.34906934     1.00300
C42         C  0.12159852  0.08462419  0.41774311     1.06200
O43         O  0.08822405  0.10001530  0.33429872    -0.76400
C44         C  0.98892808  0.09029613  0.37800281     1.04500
Fe45       Fe  0.21692721  0.77543105  0.25128225     1.65800
Fe46       Fe  0.14942372  0.80242830  0.28283309     1.73200
Fe47       Fe  0.18826470  0.84583585  0.22871989     1.54400
O48         O  0.23194007  0.85613949  0.24656061    -0.80100
O49         O  0.11727710  0.82629486  0.25259485    -0.78400
O50         O  0.25361451  0.80821989  0.24153867    -0.82600
O51         O  0.20722913  0.77053506  0.20528514    -0.77500
O52         O  0.16766265  0.87489301  0.26377329    -0.79200
O53         O  0.13730788  0.76164494  0.25978637    -0.82000
C54         C  0.21265481  0.79144525  0.18497923     0.98800
C55         C  0.25573572  0.83845419  0.24216173     1.06200
O56         O  0.18510210  0.80830084  0.25477742    -1.11000
O57         O  0.17770987  0.77810954  0.31676551    -0.73400
O58         O  0.22718361  0.77838087  0.29788437    -0.76900
O59         O  0.20952607  0.82109054  0.19057635    -0.77600
C60         C  0.20771519  0.77410565  0.32008539     0.97700
O61         O  0.18450945  0.73827562  0.25806776    -0.75500
O62         O  0.15921720  0.84389531  0.30564800    -0.80700
C63         C  0.11894962  0.83557399  0.22399296     1.00300
C64         C  0.16019038  0.87093211  0.29268628     1.06200
O65         O  0.14489922  0.83752169  0.20923884    -0.76400
C66         C  0.15472716  0.73826564  0.25295789     1.04500
Fe67       Fe  0.96988285  0.96643500  0.13891895     1.65800
Fe68       Fe  0.94216507  0.89924639  0.10746356     1.73200
Fe69       Fe  0.89986151  0.93778517  0.16256049     1.54400
O70         O  0.92542537  0.95863127  0.20042447    -0.80100
O71         O  0.90042694  0.90946000  0.08536251    -0.78400
O72         O  0.97569046  0.95640637  0.18471410    -0.82600
O73         O  0.93735976  0.00316339  0.14951104    -0.77500
O74         O  0.90847503  0.89431408  0.18158370    -0.79200
O75         O  0.96611059  0.92763205  0.07335492    -0.82000
C76         C  0.90710900  0.00531875  0.14939124     0.98800
C77         C  0.95520120  0.96152390  0.20550579     1.06200
O78         O  0.93687575  0.93474175  0.13582142    -1.11000
O79         O  0.98316403  0.88678898  0.12999814    -0.73400
O80         O  0.00676732  0.93385913  0.13128716    -0.76900
O81         O  0.88932613  0.98156791  0.14519105    -0.77600
C82         C  0.00665452  0.90412172  0.13668198     0.97700
O83         O  0.96599936  0.97700021  0.09244915    -0.75500
O84         O  0.91853255  0.86703403  0.13775962    -0.80700
C85         C  0.87361837  0.91019092  0.09880334     1.00300
C86         C  0.90984937  0.86851262  0.16654400     1.06200
O87         O  0.87013792  0.91745115  0.12784164    -0.76400
C88         C  0.96994228  0.95766013  0.07008651     1.04500
Fe89       Fe  0.77857387  0.21925927  0.26398611     1.65800
Fe90       Fe  0.84572913  0.19154285  0.23243230     1.73200
Fe91       Fe  0.80719280  0.14920477  0.28751067     1.54400
O92         O  0.78632879  0.17471874  0.32540984    -0.80100
O93         O  0.83549096  0.14983071  0.21029992    -0.78400
O94         O  0.78865547  0.22499167  0.30978310    -0.82600
O95         O  0.74183255  0.18673692  0.27456016    -0.77500
O96         O  0.85067494  0.15779658  0.30652496    -0.79200
O97         O  0.81732209  0.21551570  0.19836492    -0.82000
C98         C  0.73966113  0.15649110  0.27438583     0.98800
C99         C  0.78345643  0.20448532  0.33053476     1.06200
O100        O  0.81024497  0.18624214  0.26081117    -1.11000
O101        O  0.85822709  0.23251239  0.25499332    -0.73400
O102        O  0.81116445  0.25613218  0.25637690    -0.76900
O103        O  0.76340326  0.13870772  0.27012909    -0.77600
C104        C  0.84091136  0.25599712  0.26173521     0.97700
O105        O  0.76796565  0.21545361  0.21751916    -0.75500
O106        O  0.87794648  0.16788216  0.26269252    -0.80700
C107        C  0.83478012  0.12301670  0.22372319     1.00300
C108        C  0.87647485  0.15918259  0.29147212     1.06200
O109        O  0.82752972  0.11951658  0.25276216    -0.76400
C110        C  0.78728932  0.21937546  0.19513348     1.04500
Fe111      Fe  0.21715463  0.27507168  0.26387611     1.65800
Fe112      Fe  0.14991900  0.30270287  0.23242787     1.73200
Fe113      Fe  0.18845077  0.34506998  0.28747849     1.54400
O114        O  0.20934824  0.31955578  0.32535413    -0.80100
O115        O  0.16009184  0.34442784  0.21028507    -0.78400
O116        O  0.20715185  0.26928918  0.30967840    -0.82600
O117        O  0.25386530  0.30763252  0.27442239    -0.77500
O118        O  0.14498690  0.33642380  0.30652112    -0.79200
O119        O  0.17831113  0.27875471  0.19832905    -0.82000
C120        C  0.25599493  0.33788100  0.27428708     0.98800
C121        C  0.21227817  0.28978958  0.33045108     1.06200
O122        O  0.18542913  0.30804375  0.26076540    -1.11000
O123        O  0.13750165  0.26171810  0.25501369    -0.73400
O124        O  0.18459765  0.23815785  0.25629873    -0.76900
O125        O  0.23222352  0.35563839  0.27008648    -0.77600
C126        C  0.15485962  0.23825245  0.26171802     0.97700
O127        O  0.22769560  0.27892972  0.21739849    -0.75500
O128        O  0.11769779  0.32633756  0.26270862    -0.80700
C129        C  0.16080685  0.37124202  0.22370746     1.00300
C130        C  0.11917964  0.33503898  0.29148546     1.06200
O131        O  0.16807283  0.37474482  0.25274200    -0.76400
C132        C  0.20834568  0.27495263  0.19504859     1.04500
Fe133      Fe  0.02574676  0.52789075  0.13899913     1.65800
Fe134      Fe  0.05347482  0.59502609  0.10744204     1.73200
Fe135      Fe  0.09581938  0.55648949  0.16250883     1.54400
O136        O  0.07030359  0.53561619  0.20040458    -0.80100
O137        O  0.09518672  0.58477770  0.08530077    -0.78400
O138        O  0.02002395  0.53798982  0.18479330    -0.82600
O139        O  0.05826979  0.49115195  0.14956841    -0.77500
O140        O  0.08722881  0.59996423  0.18153140    -0.79200
O141        O  0.02948800  0.56662410  0.07338043    -0.82000
C142        C  0.08851952  0.48897227  0.14937959     0.98800
C143        C  0.04053217  0.53275381  0.20553374     1.06200
O144        O  0.05877493  0.55954757  0.13581597    -1.11000
O145        O  0.01250237  0.60753033  0.13001234    -0.73400
O146        O  0.98887204  0.56047799  0.13138910    -0.76900
O147        O  0.10631157  0.51270699  0.14511867    -0.77600
C148        C  0.98900856  0.59022028  0.13674804     0.97700
O149        O  0.02954750  0.51727504  0.09253473    -0.75500
O150        O  0.07715345  0.62723316  0.13769869    -0.80700
C151        C  0.12200686  0.58406734  0.09871710     1.00300
C152        C  0.08585539  0.62576045  0.16647748     1.06200
O153        O  0.12551090  0.57682728  0.12775755    -0.76400
C154        C  0.02562470  0.53659555  0.07014981     1.04500
Fe155      Fe  0.96965219  0.46618497  0.37634027     1.65800
Fe156      Fe  0.94257812  0.39873581  0.40793874     1.73200
Fe157      Fe  0.89922658  0.43755922  0.35376931     1.54400
O158        O  0.88894401  0.48126475  0.37154531    -0.80100
O159        O  0.91870761  0.36658041  0.37771929    -0.78400
O160        O  0.93689446  0.50288928  0.36653613    -0.82600
O161        O  0.97457508  0.45643909  0.33035401    -0.77500
O162        O  0.87012471  0.41701713  0.38883515    -0.79200
O163        O  0.98336808  0.38657503  0.38490962    -0.82000
C164        C  0.95367968  0.46186559  0.31003295     0.98800
C165        C  0.90665552  0.50503770  0.36712621     1.06200
O166        O  0.93674620  0.43439389  0.37985189    -1.11000
O167        O  0.96689833  0.42703298  0.44185902    -0.73400
O168        O  0.96668131  0.47648419  0.42293563    -0.76900
O169        O  0.92402376  0.45875697  0.31561604    -0.77600
C170        C  0.97092143  0.45703402  0.44515748     0.97700
O171        O  0.00678195  0.43374665  0.38317348    -0.75500
O172        O  0.90109402  0.40856464  0.43073009    -0.80700
C173        C  0.90944800  0.36823482  0.34911140     1.00300
C174        C  0.87406099  0.40954755  0.41775330     1.06200
O175        O  0.90751744  0.39417070  0.33433835    -0.76400
C176        C  0.00676348  0.40396873  0.37806349     1.04500
Fe177      Fe  0.27847461  0.71922833  0.01386697     1.65800
Fe178      Fe  0.34571657  0.69161838  0.48241276     1.73200
Fe179      Fe  0.30723414  0.64926725  0.03751462     1.54400
O180        O  0.28633463  0.67478894  0.07538289    -0.80100
O181        O  0.33553576  0.64988478  0.46029775    -0.78400
O182        O  0.28846572  0.72504650  0.05966424    -0.82600
O183        O  0.24178550  0.68664775  0.02443258    -0.77500
O184        O  0.35069964  0.65796300  0.05652541    -0.79200
O185        O  0.31731304  0.71555506  0.44831686    -0.82000
C186        C  0.23967767  0.65639745  0.02432996     0.98800
C187        C  0.28337451  0.70455563  0.08045665     1.06200
O188        O  0.31021905  0.68627582  0.01077123    -1.11000
O189        O  0.35812789  0.73261132  0.00497981    -0.73400
O190        O  0.31102085  0.75615261  0.00627020    -0.76900
O191        O  0.26346217  0.63865041  0.02015832    -0.77600
C192        C  0.34075978  0.75606889  0.01168778     0.97700
O193        O  0.26793241  0.71533935  0.46739404    -0.75500
O194        O  0.37795949  0.66799862  0.01268194    -0.80700
C195        C  0.33484369  0.62307767  0.47373812     1.00300
C196        C  0.37649748  0.65932898  0.04147002     1.06200
O197        O  0.32761234  0.61958716  0.00278374    -0.76400
C198        C  0.28727630  0.71933602  0.44504134     1.04500
Fe199      Fe  0.71684256  0.27534579  0.50133306     1.65800
Fe200      Fe  0.64939915  0.30244406  0.03293285     1.73200
Fe201      Fe  0.68826274  0.34578106  0.47877651     1.54400
O202        O  0.73196339  0.35603588  0.49659465    -0.80100
O203        O  0.61726001  0.32630832  0.50268799    -0.78400
O204        O  0.75356585  0.30808862  0.99152876    -0.82600
O205        O  0.70706479  0.27044328  0.45535050    -0.77500
O206        O  0.66768762  0.37488609  0.01382030    -0.79200
O207        O  0.63722501  0.26165500  0.00991551    -0.82000
C208        C  0.71256890  0.29133247  0.43504601     0.98800
C209        C  0.75573146  0.33832164  0.49215341     1.06200
O210        O  0.68506769  0.30826355  0.00485470    -1.11000
O211        O  0.67770014  0.27813195  0.06686243    -0.73400
O212        O  0.72715605  0.27829975  0.04792365    -0.76900
O213        O  0.70949580  0.32098617  0.44063723    -0.77600
C214        C  0.70770463  0.27408371  0.07015228     0.97700
O215        O  0.68439329  0.23822998  0.50817622    -0.75500
O216        O  0.65922208  0.34392902  0.05571893    -0.80700
C217        C  0.61892993  0.33557043  0.47408018     1.00300
C218        C  0.66019124  0.37095572  0.04273316     1.06200
O219        O  0.64487742  0.33750496  0.45931791    -0.76400
C220        C  0.65461064  0.23825497  0.00307411     1.04500
Fe221      Fe  0.46985107  0.46642765  0.38904126     1.65800
Fe222      Fe  0.44215612  0.39929576  0.35745371     1.73200
Fe223      Fe  0.39976098  0.43781268  0.41249934     1.54400
O224        O  0.42524560  0.45867391  0.45041901    -0.80100
O225        O  0.40045837  0.40953861  0.33528702    -0.78400
O226        O  0.47553974  0.45632446  0.43484111    -0.82600
O227        O  0.43731962  0.50315773  0.39959461    -0.77500
O228        O  0.40833432  0.39432993  0.43151583    -0.79200
O229        O  0.46615879  0.42770937  0.32341233    -0.82000
C230        C  0.40707096  0.50533628  0.39938965     0.98800
C231        C  0.45501220  0.46154727  0.45556904     1.06200
O232        O  0.43682913  0.43476556  0.38583250    -1.11000
O233        O  0.48311655  0.38679445  0.38004236    -0.73400
O234        O  0.50673703  0.43385125  0.38144758    -0.76900
O235        O  0.38928117  0.48160295  0.39511517    -0.77600
C236        C  0.50660506  0.40410569  0.38678880     0.97700
O237        O  0.46608197  0.47705286  0.34257587    -0.75500
O238        O  0.41846545  0.36707477  0.38768814    -0.80700
C239        C  0.37362766  0.41024222  0.34868525     1.00300
C240        C  0.40973572  0.36853763  0.41645933     1.06200
O241        O  0.37009919  0.41748377  0.37772233    -0.76400
C242        C  0.47001799  0.45773889  0.32018917     1.04500
Fe243      Fe  0.27868580  0.21886842  0.50125809     1.65800
Fe244      Fe  0.34616862  0.19184424  0.03282143     1.73200
Fe245      Fe  0.30733125  0.14845875  0.47869717     1.54400
O246        O  0.26364714  0.13816578  0.49652950    -0.80100
O247        O  0.37831694  0.16798167  0.50258395    -0.78400
O248        O  0.24199256  0.18609403  0.99149745    -0.82600
O249        O  0.28841726  0.22377066  0.45526711    -0.77500
O250        O  0.32792385  0.11938644  0.01374873    -0.79200
O251        O  0.35830013  0.23262833  0.00977716    -0.82000
C252        C  0.28298135  0.20286958  0.43495805     0.98800
C253        C  0.23985927  0.15586061  0.49212566     1.06200
O254        O  0.31049636  0.18598552  0.00476148    -1.11000
O255        O  0.31787366  0.21616083  0.06675010    -0.73400
O256        O  0.26840574  0.21591371  0.04785618    -0.76900
O257        O  0.28608669  0.17322082  0.44055328    -0.77600
C258        C  0.28786837  0.22017728  0.07006253     0.97700
O259        O  0.31110755  0.25601152  0.50806361    -0.75500
O260        O  0.33636687  0.15037044  0.05562998    -0.80700
C261        C  0.37664882  0.15871282  0.47397990     1.00300
C262        C  0.33540200  0.12333746  0.04266118     1.06200
O263        O  0.35070211  0.15676844  0.45922341    -0.76400
C264        C  0.34088819  0.25601203  0.00294649     1.04500
Fe265      Fe  0.52574566  0.02786294  0.38894328     1.65800
Fe266      Fe  0.55343937  0.09504441  0.35743824     1.73200
Fe267      Fe  0.59578800  0.05651761  0.41251047     1.54400
O268        O  0.57025849  0.03567131  0.45040272    -0.80100
O269        O  0.59516655  0.08483564  0.33530811    -0.78400
O270        O  0.51997958  0.03790231  0.43474392    -0.82600
O271        O  0.55827765  0.99114035  0.39951584    -0.77500
O272        O  0.58718820  0.09999120  0.43153070    -0.79200
O273        O  0.52947619  0.06664815  0.32335692    -0.82000
C274        C  0.58852761  0.98898434  0.39936680     0.98800
C275        C  0.54048752  0.03277761  0.45551484     1.06200
O276        O  0.55875062  0.05955613  0.38580398    -1.11000
O277        O  0.51245051  0.10750286  0.37999238    -0.73400
O278        O  0.48885278  0.06043045  0.38133196    -0.76900
O279        O  0.60630833  0.01273286  0.39513911    -0.77600
C280        C  0.48896347  0.09017222  0.38669703     0.97700
O281        O  0.52958552  0.01728587  0.34247238    -0.75500
O282        O  0.57708164  0.12726604  0.38771140    -0.80700
C283        C  0.62198338  0.08411742  0.34873057     1.00300
C284        C  0.58578580  0.12579215  0.41648926     1.06200
O285        O  0.62548352  0.07685369  0.37776546    -0.76400
C286        C  0.52563175  0.03662022  0.32010519     1.04500
Fe287      Fe  0.71707042  0.77509792  0.01398966     1.65800
Fe288      Fe  0.64990258  0.80278128  0.48244841     1.73200
Fe289      Fe  0.68840588  0.84512462  0.03753466     1.54400
O290        O  0.70928691  0.81961310  0.07542618    -0.80100
O291        O  0.66013572  0.84449725  0.46031903    -0.78400
O292        O  0.70699227  0.76934518  0.05978506    -0.82600
O293        O  0.75379027  0.80764120  0.02456688    -0.77500
O294        O  0.64492724  0.83649323  0.05654716    -0.79200
O295        O  0.67831870  0.77881426  0.44838289    -0.82000
C296        C  0.75594219  0.83788868  0.02440696     0.98800
C297        C  0.71218285  0.78984672  0.08054054     1.06200
O298        O  0.68538098  0.80809535  0.01082598    -1.11000
O299        O  0.63742118  0.76180636  0.00501116    -0.73400
O300        O  0.68449664  0.73820964  0.00637913    -0.76900
O301        O  0.73218984  0.85565969  0.02015722    -0.77600
C302        C  0.65474972  0.73832891  0.01174587     0.97700
O303        O  0.72767732  0.77892293  0.46752223    -0.75500
O304        O  0.61766944  0.82642924  0.01270678    -0.80700
C305        C  0.66082854  0.87130890  0.47374507     1.00300
C306        C  0.61913073  0.83511008  0.04149153     1.06200
O307        O  0.66805639  0.87480739  0.00278883    -0.76400
C308        C  0.70835314  0.77497136  0.44514519     1.04500
Fe309      Fe  0.77874056  0.71892872  0.25136085     1.65800
Fe310      Fe  0.84620236  0.69184612  0.28293079     1.73200
Fe311      Fe  0.80735849  0.64851944  0.22876203     1.54400
O312        O  0.76365703  0.63823588  0.24656538    -0.80100
O313        O  0.87835146  0.66798738  0.25268897    -0.78400
O314        O  0.74202777  0.68617697  0.24155697    -0.82600
O315        O  0.78848370  0.72386469  0.20537415    -0.77500
O316        O  0.82792048  0.61940947  0.26380631    -0.79200
O317        O  0.85836508  0.73264156  0.25991839    -0.82000
C318        C  0.78303571  0.70297996  0.18505151     0.98800
C319        C  0.73987931  0.65594236  0.24215070     1.06200
O320        O  0.81053523  0.68602671  0.25485257    -1.11000
O321        O  0.81790794  0.71615315  0.31686710    -0.73400
O322        O  0.76844610  0.71594327  0.29795672    -0.76900
O323        O  0.78613805  0.67332585  0.19062652    -0.77600
C324        C  0.78790332  0.72018013  0.32017326     0.97700
O325        O  0.81118601  0.75605218  0.25819975    -0.75500
O326        O  0.83637304  0.65036007  0.30571003    -0.80700
C327        C  0.87669054  0.65873569  0.22407862     1.00300
C328        C  0.83539570  0.62333573  0.29272372     1.06200
O329        O  0.85074734  0.65681304  0.20931184    -0.76400
C330        C  0.84096980  0.75603973  0.25309314     1.04500
Fe331      Fe  0.52591289  0.52818023  0.12637494     1.65800
Fe332      Fe  0.55306305  0.59559852  0.15796155     1.73200
Fe333      Fe  0.59634536  0.55674761  0.10375848     1.54400
O334        O  0.60660219  0.51302867  0.12152235    -0.80100
O335        O  0.57695161  0.62773815  0.12773406    -0.78400
O336        O  0.55863260  0.49144598  0.11653047    -0.82600
O337        O  0.52096128  0.53795172  0.08039656    -0.77500
O338        O  0.62548637  0.57726044  0.13880965    -0.79200
O339        O  0.51227742  0.60780172  0.13495096    -0.82000
C340        C  0.54183607  0.53248956  0.06006317     0.98800
C341        C  0.58887095  0.48927117  0.11710172     1.06200
O342        O  0.55884794  0.55994057  0.12986838    -1.11000
O343        O  0.52873424  0.56731440  0.19189109    -0.73400
O344        O  0.52891576  0.51786555  0.17296450    -0.76900
O345        O  0.57149958  0.53557214  0.06562338    -0.77600
C346        C  0.52470041  0.53731447  0.19519075     0.97700
O347        O  0.48882003  0.56065216  0.13325081    -0.75500
O348        O  0.59454630  0.58572295  0.18072705    -0.80700
C349        C  0.58618907  0.62608246  0.09911833     1.00300
C350        C  0.62157126  0.58472510  0.16773241     1.06200
O351        O  0.58807836  0.60014858  0.08433831    -0.76400
C352        C  0.48886623  0.59042651  0.12811648     1.04500
C353        C  0.71068734  0.64068669  0.23334648    -0.16900
C354        C  0.68989512  0.62563195  0.22066160     0.07100
C355        C  0.66780007  0.60806928  0.20256092     0.09000
C356        C  0.64818276  0.59515791  0.18623270    -0.17800
C357        C  0.59706281  0.65390810  0.08263957    -0.16900
C358        C  0.60962701  0.67323215  0.06567007     0.07100
C359        C  0.62608799  0.69361802  0.04468658     0.09000
C360        C  0.64005642  0.71206930  0.02783962    -0.17800
C361        C  0.77456427  0.73133570  0.34947696    -0.16900
C362        C  0.75855879  0.74172677  0.37081966     0.07100
C363        C  0.73796008  0.75413665  0.39435835     0.09000
C364        C  0.72187071  0.76429770  0.41574727    -0.17800
C365        C  0.76951735  0.71485468  0.15661184    -0.16900
C366        C  0.75550966  0.73354737  0.14025072     0.07100
C367        C  0.73883856  0.75840512  0.12529029     0.09000
C368        C  0.72514616  0.77738377  0.10898735    -0.17800
C369        C  0.65016253  0.89806404  0.45559721    -0.16900
C370        C  0.63691920  0.91752648  0.43935289     0.07100
C371        C  0.61897272  0.93927502  0.42121354     0.09000
C372        C  0.60371611  0.95984080  0.40841004    -0.17800
C373        C  0.46267780  0.10485834  0.40275108    -0.16900
C374        C  0.44420539  0.11882972  0.41957041     0.07100
C375        C  0.42380637  0.13529658  0.44053086     0.09000
C376        C  0.40447682  0.14785991  0.45749341    -0.17800
C377        C  0.48068177  0.47126274  0.29079179    -0.16900
C378        C  0.49082158  0.48735772  0.26939810     0.07100
C379        C  0.50320062  0.50796254  0.24585131     0.09000
C380        C  0.51356697  0.52397197  0.22450047    -0.17800
C381        C  0.46744596  0.47453358  0.48401733    -0.16900
C382        C  0.48640428  0.48825000  0.50032497     0.07100
C383        C  0.51124733  0.50494617  0.01528392     0.09000
C384        C  0.52994002  0.51896731  0.03163474    -0.17800
C385        C  0.39880497  0.34069369  0.43278412    -0.16900
C386        C  0.38615717  0.32135002  0.44962989     0.07100
C387        C  0.36958775  0.30092019  0.47042393     0.09000
C388        C  0.35555913  0.28236809  0.48707094    -0.17800
C389        C  0.59109942  0.34642072  0.45759438    -0.16900
C390        C  0.57175718  0.35897215  0.44063719     0.07100
C391        C  0.55134134  0.37542544  0.41968036     0.09000
C392        C  0.53286880  0.38939473  0.40285886    -0.17800
C393        C  0.64969080  0.39754896  0.06122470    -0.16900
C394        C  0.63673909  0.41716498  0.07752594     0.07100
C395        C  0.61915398  0.43927109  0.09559822     0.09000
C396        C  0.60410241  0.46007183  0.10827639    -0.17800
C397        C  0.59668569  0.15363183  0.43284483    -0.16900
C398        C  0.60931307  0.17296320  0.44972020     0.07100
C399        C  0.62587261  0.19337714  0.47053945     0.09000
C400        C  0.63990904  0.21191446  0.48719697    -0.17800
C401        C  0.34550599  0.59631509  0.45560194    -0.16900
C402        C  0.35873266  0.57683684  0.43936443     0.07100
C403        C  0.37665373  0.55506506  0.42122983     0.09000
C404        C  0.39189177  0.53448412  0.40843010    -0.17800
C405        C  0.40433849  0.64841314  0.05781688    -0.16900
C406        C  0.42365555  0.63576291  0.07469385     0.07100
C407        C  0.44403581  0.61917941  0.09552761     0.09000
C408        C  0.46254361  0.60512986  0.11220857    -0.17800
C409        C  0.89140164  0.53422718  0.35831830    -0.16900
C410        C  0.87634959  0.55502249  0.34563619     0.07100
C411        C  0.85878336  0.57712260  0.32754459     0.09000
C412        C  0.84585907  0.59673818  0.31122466    -0.17800
C413        C  0.84746329  0.39909703  0.43626602    -0.16900
C414        C  0.82784296  0.38617969  0.45258960     0.07100
C415        C  0.80573462  0.36861769  0.47067753     0.09000
C416        C  0.78493011  0.35356845  0.48335303    -0.17800
C417        C  0.90452444  0.64788437  0.20759432    -0.16900
C418        C  0.92386614  0.63533579  0.19063199     0.07100
C419        C  0.94427858  0.61888963  0.16966345     0.09000
C420        C  0.96274672  0.60492670  0.15282983    -0.17800
C421        C  0.98206974  0.47037735  0.47446055    -0.16900
C422        C  0.99244411  0.48638488  0.49580730     0.07100
C423        C  0.00482826  0.50698698  0.01935281     0.09000
C424        C  0.01496807  0.52307910  0.04074705    -0.17800
C425        C  0.96554359  0.47536930  0.28158223    -0.16900
C426        C  0.98423332  0.48937894  0.26521710     0.07100
C427        C  0.00909039  0.50606049  0.25026371     0.09000
C428        C  0.02806948  0.51976724  0.23397038    -0.17800
C429        C  0.14876600  0.59472492  0.08056107    -0.16900
C430        C  0.16823085  0.60796188  0.06430889     0.07100
C431        C  0.18997996  0.62590662  0.04616237     0.09000
C432        C  0.21054175  0.64117518  0.03335966    -0.17800
C433        C  0.34688605  0.39957136  0.33051457    -0.16900
C434        C  0.32743507  0.38632033  0.31425954     0.07100
C435        C  0.30569596  0.36836323  0.29611668     0.09000
C436        C  0.28513540  0.35309251  0.28331684    -0.17800
C437        C  0.22183745  0.26429415  0.16563484    -0.16900
C438        C  0.23792248  0.25414583  0.14423716     0.07100
C439        C  0.25852447  0.24174423  0.12069846     0.09000
C440        C  0.27453306  0.23134969  0.09936009    -0.17800
C441        C  0.26947702  0.21472196  0.40650747    -0.16900
C442        C  0.25548659  0.23342918  0.39015102     0.07100
C443        C  0.23884874  0.25831839  0.37521312     0.09000
C444        C  0.22519142  0.27732362  0.35891432    -0.17800
C445        C  0.09134689  0.34596837  0.30784000    -0.16900
C446        C  0.07202826  0.35863053  0.32470623     0.07100
C447        C  0.05163266  0.37522609  0.34551688     0.09000
C448        C  0.03310606  0.38927764  0.36217519    -0.17800
C449        C  0.10369777  0.45982195  0.15842053    -0.16900
C450        C  0.11894669  0.43924296  0.17121378     0.07100
C451        C  0.13688662  0.41747428  0.18933673     0.09000
C452        C  0.15013021  0.39799949  0.20556760    -0.17800
C453        C  0.71051418  0.14130532  0.28343745    -0.16900
C454        C  0.68995158  0.12603522  0.29623666     0.07100
C455        C  0.66820686  0.10806401  0.31436106     0.09000
C456        C  0.64874375  0.09479864  0.33059198    -0.17800
C457        C  0.77377146  0.23002712  0.16572854    -0.16900
C458        C  0.75767616  0.24016678  0.14433455     0.07100
C459        C  0.73706701  0.25255463  0.12079476     0.09000
C460        C  0.72105157  0.26293362  0.09945387    -0.17800
C461        C  0.77050943  0.21694466  0.35899124    -0.16900
C462        C  0.75682579  0.23592005  0.37530530     0.07100
C463        C  0.74015186  0.26077347  0.39026999     0.09000
C464        C  0.72612732  0.27946181  0.40662238    -0.17800
C465        C  0.85561832  0.28224636  0.27782890    -0.16900
C466        C  0.86958792  0.30069233  0.29467715     0.07100
C467        C  0.88604277  0.32107624  0.31566294     0.09000
C468        C  0.89859629  0.34040280  0.33263385    -0.17800
C469        C  0.78507711  0.85308585  0.03347269    -0.16900
C470        C  0.80563148  0.86834701  0.04629085     0.07100
C471        C  0.82737392  0.88629361  0.06443748     0.09000
C472        C  0.84684274  0.89953433  0.08067731    -0.17800
C473        C  0.89893415  0.84068089  0.18290743    -0.16900
C474        C  0.88629030  0.82135551  0.19978015     0.07100
C475        C  0.86971141  0.80094108  0.22058819     0.09000
C476        C  0.85566534  0.78239621  0.23723211    -0.17800
C477        C  0.89192328  0.03446639  0.15843033    -0.16900
C478        C  0.87666205  0.05503642  0.17122410     0.07100
C479        C  0.85870565  0.07679218  0.18934786     0.09000
C480        C  0.84545284  0.09625961  0.20558038    -0.17800
C481        C  0.14005994  0.71190199  0.23709422    -0.16900
C482        C  0.12602584  0.69334881  0.22045560     0.07100
C483        C  0.10944693  0.67292626  0.19966450     0.09000
C484        C  0.09679212  0.65359383  0.18281371    -0.17800
C485        C  0.22104609  0.76293486  0.34938484    -0.16900
C486        C  0.23706114  0.75254364  0.37071892     0.07100
C487        C  0.25767673  0.74014459  0.39424610     0.09000
C488        C  0.27377393  0.72999600  0.41563354    -0.17800
C489        C  0.27047264  0.71703005  0.10892149    -0.16900
C490        C  0.25681628  0.73603485  0.12522157     0.07100
C491        C  0.24017145  0.76091562  0.14016468     0.09000
C492        C  0.22617067  0.77960983  0.15652684    -0.17800
C493        C  0.09112370  0.84643563  0.20750642    -0.16900
C494        C  0.07179869  0.85900496  0.19054290     0.07100
C495        C  0.05140568  0.87547478  0.16957616     0.09000
C496        C  0.03293918  0.88944363  0.15274777    -0.17800
C497        C  0.09721367  0.15377729  0.33260030    -0.16900
C498        C  0.10979638  0.17310576  0.31564634     0.07100
C499        C  0.12626001  0.19350776  0.29467598     0.09000
C500        C  0.14020976  0.21197528  0.27782855    -0.17800
C501        C  0.21066683  0.14059107  0.48337122    -0.16900
C502        C  0.18987164  0.12552799  0.47070902     0.07100
C503        C  0.16778448  0.10796239  0.45261368     0.09000
C504        C  0.14818074  0.09505331  0.43627423    -0.17800
C505        C  0.98059614  0.97115386  0.04067048    -0.16900
C506        C  0.99074441  0.98723636  0.01927036     0.07100
C507        C  0.00314281  0.00783589  0.49572699     0.09000
C508        C  0.01353058  0.02384600  0.47438610    -0.17800
C509        C  0.03022001  0.01875827  0.28157997    -0.16900
C510        C  0.01154523  0.00471329  0.26523581     0.07100
C511        C  0.98668510  0.98804055  0.25029042     0.09000
C512        C  0.96768893  0.97439086  0.23397790    -0.17800
C513        C  0.96258838  0.10500248  0.36213417    -0.16900
C514        C  0.94405264  0.11904726  0.34548416     0.07100
C515        C  0.92364468  0.13562183  0.32467637     0.09000
C516        C  0.90431468  0.14826531  0.30781288    -0.17800
C517        C  0.10422458  0.95998233  0.35835399    -0.16900
C518        C  0.11926725  0.93918774  0.34566819     0.07100
C519        C  0.13681965  0.91710305  0.32755582     0.09000
C520        C  0.14973269  0.89750527  0.31121266    -0.17800
C521        C  0.39839537  0.84050767  0.08260952    -0.16900
C522        C  0.38581096  0.82119206  0.06564453     0.07100
C523        C  0.36934765  0.80080536  0.04466067     0.09000
C524        C  0.35540032  0.78234655  0.02780422    -0.17800
C525        C  0.51495316  0.02312143  0.29070227    -0.16900
C526        C  0.50479111  0.00703944  0.26931108     0.07100
C527        C  0.49238860  0.98643948  0.24577300     0.09000
C528        C  0.48200984  0.97042650  0.22443242    -0.17800
C529        C  0.46552256  0.97550292  0.03162695    -0.16900
C530        C  0.48420363  0.98955199  0.01528772     0.07100
C531        C  0.50905195  0.00623556  0.50032795     0.09000
C532        C  0.52802771  0.01989782  0.48399755    -0.17800
C533        C  0.34588229  0.09676035  0.06117558    -0.16900
C534        C  0.35881855  0.07716437  0.07750652     0.07100
C535        C  0.37639350  0.05508597  0.09560983     0.09000
C536        C  0.39144502  0.03429807  0.10830063    -0.17800
C537        C  0.34738460  0.89926536  0.18625216    -0.16900
C538        C  0.32778197  0.88636475  0.20260371     0.07100
C539        C  0.30570616  0.86880301  0.22072143     0.09000
C540        C  0.28492141  0.85373575  0.23339997    -0.17800
C541        C  0.59128333  0.84600894  0.05783746    -0.16900
C542        C  0.57195024  0.85863512  0.07471175     0.07100
C543        C  0.55154248  0.87519346  0.09553622     0.09000
C544        C  0.53301141  0.88923141  0.11219848    -0.17800
Fe545      Fe  0.46963139  0.96618856  0.62631201     1.65800
Fe546      Fe  0.44247767  0.89878861  0.65792368     1.73200
Fe547      Fe  0.39917448  0.93765326  0.60375644     1.54400
O548        O  0.38894804  0.98135289  0.62156980    -0.80100
O549        O  0.41856322  0.86665984  0.62769491    -0.78400
O550        O  0.43691399  0.00292268  0.61648662    -0.82600
O551        O  0.47453701  0.95638705  0.58033339    -0.77500
O552        O  0.37005188  0.91712406  0.63880626    -0.79200
O553        O  0.48325785  0.88657236  0.63490665    -0.82000
C554        C  0.45364887  0.96191825  0.56003336     0.98800
C555        C  0.40667843  0.00510449  0.61711598     1.06200
O556        O  0.43669053  0.93444165  0.62983379    -1.11000
O557        O  0.46682110  0.92707651  0.69184118    -0.73400
O558        O  0.46666044  0.97652152  0.67289708    -0.76900
O559        O  0.42398935  0.95886102  0.56562162    -0.77600
C560        C  0.47086802  0.95707701  0.69512967     0.97700
O561        O  0.50672152  0.93371887  0.63318399    -0.75500
O562        O  0.40101255  0.90868523  0.68070741    -0.80700
C563        C  0.40930486  0.86832467  0.59908430     1.00300
C564        C  0.37398264  0.90967910  0.66772991     1.06200
O565        O  0.40742295  0.89426310  0.58430733    -0.76400
C566        C  0.50667564  0.90394186  0.62807498     1.04500
Fe567      Fe  0.02600631  0.02806434  0.87627259     1.65800
Fe568      Fe  0.05310400  0.09548069  0.90788957     1.73200
Fe569      Fe  0.09647377  0.05662982  0.85376123     1.54400
O570        O  0.10670367  0.01293521  0.87158852    -0.80100
O571        O  0.07702485  0.12761609  0.87767180    -0.78400
O572        O  0.05874721  0.99134575  0.86649497    -0.82600
O573        O  0.02114599  0.03784519  0.83028432    -0.77500
O574        O  0.12555494  0.07717425  0.88882553    -0.79200
O575        O  0.01233458  0.10767439  0.88484644    -0.82000
C576        C  0.04205781  0.03233521  0.81000013     0.98800
C577        C  0.08898208  0.98917594  0.86714272     1.06200
O578        O  0.05893096  0.05982683  0.87981035    -1.11000
O579        O  0.02874418  0.06719138  0.94179686    -0.73400
O580        O  0.02892890  0.01774440  0.92286437    -0.76900
O581        O  0.07170938  0.03541051  0.81561088    -0.77600
C582        C  0.02469683  0.03719145  0.94508859     0.97700
O583        O  0.98889384  0.06051640  0.88309720    -0.75500
O584        O  0.09455797  0.08560890  0.93070344    -0.80700
C585        C  0.08631054  0.12595389  0.84906931     1.00300
C586        C  0.12159849  0.08462414  0.91774306     1.06200
O587        O  0.08822408  0.10001532  0.83429873    -0.76400
C588        C  0.98892809  0.09029607  0.87800285     1.04500
Fe589      Fe  0.21692721  0.77543106  0.75128226     1.65800
Fe590      Fe  0.14942372  0.80242829  0.78283308     1.73200
Fe591      Fe  0.18826469  0.84583585  0.72871990     1.54400
O592        O  0.23194006  0.85613951  0.74656063    -0.80100
O593        O  0.11727712  0.82629488  0.75259485    -0.78400
O594        O  0.25361452  0.80821992  0.74153868    -0.82600
O595        O  0.20722915  0.77053505  0.70528514    -0.77500
O596        O  0.16766263  0.87489300  0.76377331    -0.79200
O597        O  0.13730786  0.76164492  0.75978633    -0.82000
C598        C  0.21265479  0.79144525  0.68497933     0.98800
C599        C  0.25573570  0.83845417  0.74216173     1.06200
O600        O  0.18510210  0.80830085  0.75477741    -1.11000
O601        O  0.17770984  0.77810952  0.81676550    -0.73400
O602        O  0.22718358  0.77838090  0.79788438    -0.76900
O603        O  0.20952606  0.82109051  0.69057636    -0.77600
C604        C  0.20771518  0.77410565  0.82008536     0.97700
O605        O  0.18450941  0.73827560  0.75806777    -0.75500
O606        O  0.15921717  0.84389529  0.80564802    -0.80700
C607        C  0.11894960  0.83557398  0.72399301     1.00300
C608        C  0.16019036  0.87093213  0.79268630     1.06200
O609        O  0.14489923  0.83752164  0.70923883    -0.76400
C610        C  0.15472721  0.73826573  0.75295791     1.04500
Fe611      Fe  0.96988283  0.96643499  0.63891895     1.65800
Fe612      Fe  0.94216506  0.89924638  0.60746354     1.73200
Fe613      Fe  0.89986152  0.93778515  0.66256049     1.54400
O614        O  0.92542537  0.95863123  0.70042445    -0.80100
O615        O  0.90042698  0.90946001  0.58536247    -0.78400
O616        O  0.97569047  0.95640636  0.68471408    -0.82600
O617        O  0.93735977  0.00316336  0.64951107    -0.77500
O618        O  0.90847509  0.89431408  0.68158370    -0.79200
O619        O  0.96611059  0.92763208  0.57335491    -0.82000
C620        C  0.90710893  0.00531881  0.64939129     0.98800
C621        C  0.95520130  0.96152391  0.70550586     1.06200
O622        O  0.93687572  0.93474175  0.63582139    -1.11000
O623        O  0.98316402  0.88678898  0.62999815    -0.73400
O624        O  0.00676728  0.93385914  0.63128714    -0.76900
O625        O  0.88932612  0.98156789  0.64519107    -0.77600
C626        C  0.00665447  0.90412168  0.63668198     0.97700
O627        O  0.96599935  0.97700022  0.59244915    -0.75500
O628        O  0.91853250  0.86703403  0.63775959    -0.80700
C629        C  0.87361829  0.91019091  0.59880335     1.00300
C630        C  0.90984939  0.86851255  0.66654394     1.06200
O631        O  0.87013795  0.91745113  0.62784161    -0.76400
C632        C  0.96994224  0.95766011  0.57008659     1.04500
Fe633      Fe  0.77857386  0.21925927  0.76398614     1.65800
Fe634      Fe  0.84572911  0.19154285  0.73243230     1.73200
Fe635      Fe  0.80719278  0.14920475  0.78751067     1.54400
O636        O  0.78632875  0.17471867  0.82540982    -0.80100
O637        O  0.83549091  0.14983072  0.71029993    -0.78400
O638        O  0.78865554  0.22499162  0.80978312    -0.82600
O639        O  0.74183251  0.18673694  0.77456021    -0.77500
O640        O  0.85067494  0.15779659  0.80652498    -0.79200
O641        O  0.81732209  0.21551567  0.69836492    -0.82000
C642        C  0.73966122  0.15649105  0.77438583     0.98800
C643        C  0.78345644  0.20448539  0.83053481     1.06200
O644        O  0.81024495  0.18624213  0.76081117    -1.11000
O645        O  0.85822701  0.23251245  0.75499332    -0.73400
O646        O  0.81116433  0.25613219  0.75637688    -0.76900
O647        O  0.76340319  0.13870774  0.77012909    -0.77600
C648        C  0.84091145  0.25599710  0.76173521     0.97700
O649        O  0.76796563  0.21545364  0.71751916    -0.75500
O650        O  0.87794647  0.16788214  0.76269255    -0.80700
C651        C  0.83478012  0.12301663  0.72372313     1.00300
C652        C  0.87647475  0.15918262  0.79147208     1.06200
O653        O  0.82752972  0.11951658  0.75276219    -0.76400
C654        C  0.78728920  0.21937545  0.69513353     1.04500
Fe655      Fe  0.21715456  0.27507169  0.76387612     1.65800
Fe656      Fe  0.14991894  0.30270286  0.73242785     1.73200
Fe657      Fe  0.18845068  0.34506998  0.78747851     1.54400
O658        O  0.20934811  0.31955573  0.82535419    -0.80100
O659        O  0.16009176  0.34442788  0.71028506    -0.78400
O660        O  0.20715176  0.26928916  0.80967842    -0.82600
O661        O  0.25386523  0.30763253  0.77442244    -0.77500
O662        O  0.14498679  0.33642380  0.80652106    -0.79200
O663        O  0.17831104  0.27875468  0.69832906    -0.82000
C664        C  0.25599485  0.33788100  0.77428711     0.98800
C665        C  0.21227802  0.28978957  0.83045099     1.06200
O666        O  0.18542906  0.30804377  0.76076539    -1.11000
O667        O  0.13750163  0.26171812  0.75501369    -0.73400
O668        O  0.18459763  0.23815787  0.75629867    -0.76900
O669        O  0.23222344  0.35563841  0.77008656    -0.77600
C670        C  0.15485954  0.23825238  0.76171803     0.97700
O671        O  0.22769552  0.27892977  0.71739849    -0.75500
O672        O  0.11769771  0.32633750  0.76270853    -0.80700
C673        C  0.16080679  0.37124198  0.72370741     1.00300
C674        C  0.11917948  0.33503900  0.79148551     1.06200
O675        O  0.16807278  0.37474484  0.75274200    -0.76400
C676        C  0.20834578  0.27495263  0.69504860     1.04500
Fe677      Fe  0.02574674  0.52789076  0.63899912     1.65800
Fe678      Fe  0.05347486  0.59502606  0.60744200     1.73200
Fe679      Fe  0.09581940  0.55648946  0.66250881     1.54400
O680        O  0.07030365  0.53561610  0.70040452    -0.80100
O681        O  0.09518677  0.58477763  0.58530073    -0.78400
O682        O  0.02002400  0.53798987  0.68479327    -0.82600
O683        O  0.05826972  0.49115191  0.64956838    -0.77500
O684        O  0.08722879  0.59996422  0.68153140    -0.79200
O685        O  0.02948799  0.56662411  0.57338039    -0.82000
C686        C  0.08851957  0.48897228  0.64937953     0.98800
C687        C  0.04053214  0.53275374  0.70553375     1.06200
O688        O  0.05877495  0.55954754  0.63581595    -1.11000
O689        O  0.01250242  0.60753035  0.63001231    -0.73400
O690        O  0.98887204  0.56047803  0.63138910    -0.76900
O691        O  0.10631153  0.51270692  0.64511862    -0.77600
C692        C  0.98900858  0.59022033  0.63674805     0.97700
O693        O  0.02954743  0.51727506  0.59253470    -0.75500
O694        O  0.07715353  0.62723314  0.63769868    -0.80700
C695        C  0.12200681  0.58406730  0.59871708     1.00300
C696        C  0.08585537  0.62576034  0.66647741     1.06200
O697        O  0.12551090  0.57682731  0.62775755    -0.76400
C698        C  0.02562464  0.53659553  0.57014981     1.04500
Fe699      Fe  0.96965222  0.46618498  0.87634028     1.65800
Fe700      Fe  0.94257814  0.39873581  0.90793871     1.73200
Fe701      Fe  0.89922660  0.43755926  0.85376931     1.54400
O702        O  0.88894405  0.48126476  0.87154534    -0.80100
O703        O  0.91870768  0.36658041  0.87771923    -0.78400
O704        O  0.93689451  0.50288928  0.86653610    -0.82600
O705        O  0.97457512  0.45643910  0.83035404    -0.77500
O706        O  0.87012473  0.41701718  0.88883519    -0.79200
O707        O  0.98336809  0.38657505  0.88490965    -0.82000
C708        C  0.95367976  0.46186563  0.81003291     0.98800
C709        C  0.90665560  0.50503777  0.86712617     1.06200
O710        O  0.93674622  0.43439390  0.87985189    -1.11000
O711        O  0.96689831  0.42703297  0.94185902    -0.73400
O712        O  0.96668132  0.47648418  0.92293564    -0.76900
O713        O  0.92402378  0.45875697  0.81561606    -0.77600
C714        C  0.97092146  0.45703401  0.94515749     0.97700
O715        O  0.00678197  0.43374667  0.88317353    -0.75500
O716        O  0.90109406  0.40856460  0.93073008    -0.80700
C717        C  0.90944799  0.36823482  0.84911132     1.00300
C718        C  0.87406101  0.40954758  0.91775323     1.06200
O719        O  0.90751740  0.39417072  0.83433833    -0.76400
C720        C  0.00676357  0.40396870  0.87806349     1.04500
Fe721      Fe  0.27847461  0.71922830  0.51386698     1.65800
Fe722      Fe  0.34571658  0.69161839  0.98241275     1.73200
Fe723      Fe  0.30723412  0.64926720  0.53751460     1.54400
O724        O  0.28633462  0.67478891  0.57538290    -0.80100
O725        O  0.33553575  0.64988480  0.96029772    -0.78400
O726        O  0.28846571  0.72504646  0.55966428    -0.82600
O727        O  0.24178551  0.68664771  0.52443259    -0.77500
O728        O  0.35069966  0.65796293  0.55652542    -0.79200
O729        O  0.31731303  0.71555507  0.94831685    -0.82000
C730        C  0.23967766  0.65639743  0.52432996     0.98800
C731        C  0.28337452  0.70455552  0.58045659     1.06200
O732        O  0.31021904  0.68627580  0.51077124    -1.11000
O733        O  0.35812785  0.73261134  0.50497983    -0.73400
O734        O  0.31102079  0.75615260  0.50627022    -0.76900
O735        O  0.26346215  0.63865037  0.52015829    -0.77600
C736        C  0.34075987  0.75606885  0.51168780     0.97700
O737        O  0.26793241  0.71533939  0.96739403    -0.75500
O738        O  0.37795948  0.66799859  0.51268197    -0.80700
C739        C  0.33484368  0.62307772  0.97373813     1.00300
C740        C  0.37649738  0.65932897  0.54146999     1.06200
O741        O  0.32761232  0.61958711  0.50278375    -0.76400
C742        C  0.28727634  0.71933606  0.94504135     1.04500
Fe743      Fe  0.71684258  0.27534578  0.00133305     1.65800
Fe744      Fe  0.64939913  0.30244409  0.53293288     1.73200
Fe745      Fe  0.68826277  0.34578106  0.97877650     1.54400
O746        O  0.73196344  0.35603587  0.99659466    -0.80100
O747        O  0.61726004  0.32630830  0.00268795    -0.78400
O748        O  0.75356582  0.30808862  0.49152876    -0.82600
O749        O  0.70706484  0.27044328  0.95535050    -0.77500
O750        O  0.66768760  0.37488609  0.51382028    -0.79200
O751        O  0.63722497  0.26165501  0.50991554    -0.82000
C752        C  0.71256899  0.29133244  0.93504595     0.98800
C753        C  0.75573143  0.33832162  0.99215344     1.06200
O754        O  0.68506768  0.30826356  0.50485472    -1.11000
O755        O  0.67770015  0.27813198  0.56686245    -0.73400
O756        O  0.72715606  0.27829980  0.54792365    -0.76900
O757        O  0.70949585  0.32098620  0.94063724    -0.77600
C758        C  0.70770458  0.27408377  0.57015230     0.97700
O759        O  0.68439333  0.23822996  0.00817616    -0.75500
O760        O  0.65922210  0.34392904  0.55571894    -0.80700
C761        C  0.61892998  0.33557044  0.97408015     1.00300
C762        C  0.66019124  0.37095579  0.54273320     1.06200
O763        O  0.64487745  0.33750496  0.95931789    -0.76400
C764        C  0.65461060  0.23825504  0.50307418     1.04500
Fe765      Fe  0.46985105  0.46642768  0.88904124     1.65800
Fe766      Fe  0.44215613  0.39929574  0.85745373     1.73200
Fe767      Fe  0.39976098  0.43781269  0.91249933     1.54400
O768        O  0.42524560  0.45867395  0.95041903    -0.80100
O769        O  0.40045832  0.40953854  0.83528705    -0.78400
O770        O  0.47553973  0.45632450  0.93484112    -0.82600
O771        O  0.43731952  0.50315772  0.89959458    -0.77500
O772        O  0.40833433  0.39432994  0.93151586    -0.79200
O773        O  0.46615879  0.42770939  0.82341235    -0.82000
C774        C  0.40707099  0.50533630  0.89938965     0.98800
C775        C  0.45501213  0.46154727  0.95556896     1.06200
O776        O  0.43682913  0.43476557  0.88583248    -1.11000
O777        O  0.48311659  0.38679449  0.88004239    -0.73400
O778        O  0.50673703  0.43385131  0.88144759    -0.76900
O779        O  0.38928108  0.48160293  0.89511517    -0.77600
C780        C  0.50660504  0.40410572  0.88678882     0.97700
O781        O  0.46608192  0.47705290  0.84257587    -0.75500
O782        O  0.41846546  0.36707474  0.88768820    -0.80700
C783        C  0.37362772  0.41024219  0.84868523     1.00300
C784        C  0.40973573  0.36853766  0.91645935     1.06200
O785        O  0.37009915  0.41748377  0.87772234    -0.76400
C786        C  0.47001798  0.45773887  0.82018914     1.04500
Fe787      Fe  0.27868579  0.21886840  0.00125809     1.65800
Fe788      Fe  0.34616863  0.19184423  0.53282143     1.73200
Fe789      Fe  0.30733125  0.14845874  0.97869716     1.54400
O790        O  0.26364715  0.13816571  0.99652950    -0.80100
O791        O  0.37831696  0.16798168  0.00258396    -0.78400
O792        O  0.24199257  0.18609413  0.49149747    -0.82600
O793        O  0.28841725  0.22377068  0.95526711    -0.77500
O794        O  0.32792381  0.11938643  0.51374875    -0.79200
O795        O  0.35830014  0.23262831  0.50977715    -0.82000
C796        C  0.28298141  0.20286950  0.93495815     0.98800
C797        C  0.23985930  0.15586071  0.99212566     1.06200
O798        O  0.31049638  0.18598553  0.50476148    -1.11000
O799        O  0.31787368  0.21616082  0.56675010    -0.73400
O800        O  0.26840577  0.21591375  0.54785618    -0.76900
O801        O  0.28608668  0.17322087  0.94055326    -0.77600
C802        C  0.28786840  0.22017731  0.57006254     0.97700
O803        O  0.31110754  0.25601152  0.00806362    -0.75500
O804        O  0.33636684  0.15037043  0.55562999    -0.80700
C805        C  0.37664876  0.15871287  0.97397991     1.00300
C806        C  0.33540194  0.12333745  0.54266121     1.06200
O807        O  0.35070215  0.15676846  0.95922343    -0.76400
C808        C  0.34088824  0.25601204  0.50294645     1.04500
Fe809      Fe  0.52574564  0.02786289  0.88894329     1.65800
Fe810      Fe  0.55343932  0.09504437  0.85743825     1.73200
Fe811      Fe  0.59578797  0.05651760  0.91251047     1.54400
O812        O  0.57025852  0.03567128  0.95040272    -0.80100
O813        O  0.59516656  0.08483562  0.83530811    -0.78400
O814        O  0.51997959  0.03790231  0.93474394    -0.82600
O815        O  0.55827762  0.99114035  0.89951586    -0.77500
O816        O  0.58718816  0.09999121  0.93153070    -0.79200
O817        O  0.52947615  0.06664809  0.82335693    -0.82000
C818        C  0.58852774  0.98898435  0.89936680     0.98800
C819        C  0.54048744  0.03277760  0.95551484     1.06200
O820        O  0.55875060  0.05955607  0.88580397    -1.11000
O821        O  0.51245046  0.10750283  0.87999240    -0.73400
O822        O  0.48885274  0.06043044  0.88133195    -0.76900
O823        O  0.60630830  0.01273287  0.89513910    -0.77600
C824        C  0.48896345  0.09017204  0.88669700     0.97700
O825        O  0.52958554  0.01728581  0.84247241    -0.75500
O826        O  0.57708155  0.12726605  0.88771141    -0.80700
C827        C  0.62198324  0.08411742  0.84873058     1.00300
C828        C  0.58578572  0.12579211  0.91648930     1.06200
O829        O  0.62548349  0.07685372  0.87776547    -0.76400
C830        C  0.52563174  0.03662020  0.82010516     1.04500
Fe831      Fe  0.71707043  0.77509791  0.51398963     1.65800
Fe832      Fe  0.64990255  0.80278129  0.98244841     1.73200
Fe833      Fe  0.68840589  0.84512462  0.53753464     1.54400
O834        O  0.70928689  0.81961314  0.57542614    -0.80100
O835        O  0.66013568  0.84449727  0.96031906    -0.78400
O836        O  0.70699232  0.76934520  0.55978502    -0.82600
O837        O  0.75379028  0.80764112  0.52456683    -0.77500
O838        O  0.64492725  0.83649328  0.55654713    -0.79200
O839        O  0.67831870  0.77881430  0.94838290    -0.82000
C840        C  0.75594226  0.83788880  0.52440692     0.98800
C841        C  0.71218290  0.78984666  0.58054059     1.06200
O842        O  0.68538098  0.80809533  0.51082597    -1.11000
O843        O  0.63742120  0.76180637  0.50501116    -0.73400
O844        O  0.68449668  0.73820965  0.50637913    -0.76900
O845        O  0.73218986  0.85565962  0.52015717    -0.77600
C846        C  0.65474968  0.73832880  0.51174593     0.97700
O847        O  0.72767731  0.77892298  0.96752228    -0.75500
O848        O  0.61766950  0.82642924  0.51270672    -0.80700
C849        C  0.66082849  0.87130895  0.97374507     1.00300
C850        C  0.61913071  0.83511013  0.54149157     1.06200
O851        O  0.66805643  0.87480739  0.50278879    -0.76400
C852        C  0.70835317  0.77497141  0.94514519     1.04500
Fe853      Fe  0.77874054  0.71892874  0.75136084     1.65800
Fe854      Fe  0.84620235  0.69184615  0.78293079     1.73200
Fe855      Fe  0.80735850  0.64851946  0.72876202     1.54400
O856        O  0.76365707  0.63823586  0.74656538    -0.80100
O857        O  0.87835148  0.66798742  0.75268898    -0.78400
O858        O  0.74202778  0.68617696  0.74155695    -0.82600
O859        O  0.78848372  0.72386470  0.70537416    -0.77500
O860        O  0.82792051  0.61940951  0.76380632    -0.79200
O861        O  0.85836510  0.73264159  0.75991842    -0.82000
C862        C  0.78303568  0.70298004  0.68505144     0.98800
C863        C  0.73987928  0.65594235  0.74215068     1.06200
O864        O  0.81053521  0.68602674  0.75485256    -1.11000
O865        O  0.81790791  0.71615316  0.81686708    -0.73400
O866        O  0.76844607  0.71594328  0.79795670    -0.76900
O867        O  0.78613803  0.67332585  0.69062655    -0.77600
C868        C  0.78790332  0.72018015  0.82017328     0.97700
O869        O  0.81118600  0.75605217  0.75819976    -0.75500
O870        O  0.83637304  0.65036011  0.80571004    -0.80700
C871        C  0.87669054  0.65873572  0.72407859     1.00300
C872        C  0.83539572  0.62333573  0.79272370     1.06200
O873        O  0.85074739  0.65681309  0.70931184    -0.76400
C874        C  0.84096977  0.75603980  0.75309314     1.04500
Fe875      Fe  0.52591288  0.52818023  0.62637496     1.65800
Fe876      Fe  0.55306302  0.59559854  0.65796154     1.73200
Fe877      Fe  0.59634534  0.55674762  0.60375848     1.54400
O878        O  0.60660221  0.51302873  0.62152234    -0.80100
O879        O  0.57695157  0.62773813  0.62773406    -0.78400
O880        O  0.55863262  0.49144600  0.61653050    -0.82600
O881        O  0.52096125  0.53795176  0.58039661    -0.77500
O882        O  0.62548635  0.57726045  0.63880962    -0.79200
O883        O  0.51227737  0.60780173  0.63495095    -0.82000
C884        C  0.54183607  0.53248954  0.56006310     0.98800
C885        C  0.58887098  0.48927110  0.61710170     1.06200
O886        O  0.55884792  0.55994058  0.62986838    -1.11000
O887        O  0.52873420  0.56731444  0.69189109    -0.73400
O888        O  0.52891579  0.51786557  0.67296452    -0.76900
O889        O  0.57149954  0.53557212  0.56562341    -0.77600
C890        C  0.52470042  0.53731450  0.69519077     0.97700
O891        O  0.48882002  0.56065216  0.63325082    -0.75500
O892        O  0.59454628  0.58572299  0.68072702    -0.80700
C893        C  0.58618907  0.62608258  0.59911827     1.00300
C894        C  0.62157123  0.58472516  0.66773247     1.06200
O895        O  0.58807832  0.60014854  0.58433830    -0.76400
C896        C  0.48886629  0.59042651  0.62811652     1.04500
C897        C  0.71068740  0.64068670  0.73334650    -0.16900
C898        C  0.68989510  0.62563193  0.72066156     0.07100
C899        C  0.66780010  0.60806932  0.70256099     0.09000
C900        C  0.64818269  0.59515793  0.68623267    -0.17800
C901        C  0.59706274  0.65390792  0.58263969    -0.16900
C902        C  0.60962716  0.67323224  0.56566993     0.07100
C903        C  0.62608792  0.69361783  0.54468671     0.09000
C904        C  0.64005653  0.71206941  0.52783953    -0.17800
C905        C  0.77456428  0.73133570  0.84947692    -0.16900
C906        C  0.75855875  0.74172680  0.87081969     0.07100
C907        C  0.73796013  0.75413667  0.89435834     0.09000
C908        C  0.72187074  0.76429777  0.91574733    -0.17800
C909        C  0.76951739  0.71485460  0.65661195    -0.16900
C910        C  0.75550952  0.73354748  0.64025067     0.07100
C911        C  0.73883863  0.75840503  0.62529040     0.09000
C912        C  0.72514612  0.77738388  0.60898726    -0.17800
C913        C  0.65016252  0.89806401  0.95559729    -0.16900
C914        C  0.63691914  0.91752655  0.93935288     0.07100
C915        C  0.61897278  0.93927499  0.92121358     0.09000
C916        C  0.60371611  0.95984089  0.90841000    -0.17800
C917        C  0.46267766  0.10485832  0.90275116    -0.16900
C918        C  0.44420543  0.11882957  0.91957034     0.07100
C919        C  0.42380626  0.13529662  0.94053093     0.09000
C920        C  0.40447691  0.14785989  0.95749335    -0.17800
C921        C  0.48068180  0.47126273  0.79079181    -0.16900
C922        C  0.49082163  0.48735774  0.76939811     0.07100
C923        C  0.50320068  0.50796254  0.74585135     0.09000
C924        C  0.51356703  0.52397200  0.72450049    -0.17800
C925        C  0.46744604  0.47453366  0.98401742    -0.16900
C926        C  0.48640421  0.48824992  0.00032487     0.07100
C927        C  0.51124718  0.50494614  0.51528388     0.09000
C928        C  0.52994004  0.51896740  0.53163484    -0.17800
C929        C  0.39880493  0.34069365  0.93278421    -0.16900
C930        C  0.38615719  0.32135007  0.94962989     0.07100
C931        C  0.36958766  0.30092018  0.97042398     0.09000
C932        C  0.35555911  0.28236814  0.98707092    -0.17800
C933        C  0.59109946  0.34642077  0.95759434    -0.16900
C934        C  0.57175724  0.35897219  0.94063719     0.07100
C935        C  0.55134136  0.37542551  0.91968035     0.09000
C936        C  0.53286885  0.38939479  0.90285889    -0.17800
C937        C  0.64969092  0.39754893  0.56122466    -0.16900
C938        C  0.63673909  0.41716508  0.57752604     0.07100
C939        C  0.61915408  0.43927100  0.59559820     0.09000
C940        C  0.60410240  0.46007194  0.60827646    -0.17800
C941        C  0.59668562  0.15363185  0.93284486    -0.16900
C942        C  0.60931301  0.17296316  0.94972025     0.07100
C943        C  0.62587254  0.19337709  0.97053948     0.09000
C944        C  0.63990906  0.21191446  0.98719697    -0.17800
C945        C  0.34550600  0.59631508  0.95560193    -0.16900
C946        C  0.35873261  0.57683687  0.93936446     0.07100
C947        C  0.37665371  0.55506505  0.92122982     0.09000
C948        C  0.39189170  0.53448414  0.90843011    -0.17800
C949        C  0.40433861  0.64841309  0.55781696    -0.16900
C950        C  0.42365546  0.63576300  0.57469376     0.07100
C951        C  0.44403587  0.61917934  0.59552772     0.09000
C952        C  0.46254350  0.60512989  0.61220853    -0.17800
C953        C  0.89140174  0.53422715  0.85831822    -0.16900
C954        C  0.87634963  0.55502252  0.84563605     0.07100
C955        C  0.85878343  0.57712256  0.82754452     0.09000
C956        C  0.84585910  0.59673823  0.81122461    -0.17800
C957        C  0.84746328  0.39909705  0.93626606    -0.16900
C958        C  0.82784302  0.38617978  0.95258956     0.07100
C959        C  0.80573458  0.36861768  0.97067757     0.09000
C960        C  0.78493022  0.35356850  0.98335300    -0.17800
C961        C  0.90452447  0.64788441  0.70759435    -0.16900
C962        C  0.92386618  0.63533582  0.69063199     0.07100
C963        C  0.94427860  0.61888971  0.66966346     0.09000
C964        C  0.96274679  0.60492676  0.65282983    -0.17800
C965        C  0.98206980  0.47037732  0.97446054    -0.16900
C966        C  0.99244418  0.48638487  0.99580731     0.07100
C967        C  0.00482822  0.50698699  0.51935281     0.09000
C968        C  0.01496801  0.52307910  0.54074703    -0.17800
C969        C  0.96554356  0.47536926  0.78158230    -0.16900
C970        C  0.98423344  0.48937898  0.76521702     0.07100
C971        C  0.00909036  0.50606038  0.75026376     0.09000
C972        C  0.02806958  0.51976724  0.73397025    -0.17800
C973        C  0.14876602  0.59472493  0.58056107    -0.16900
C974        C  0.16823079  0.60796190  0.56430893     0.07100
C975        C  0.18997994  0.62590664  0.54616238     0.09000
C976        C  0.21054174  0.64117516  0.53335968    -0.17800
C977        C  0.34688599  0.39957130  0.83051452    -0.16900
C978        C  0.32743510  0.38632037  0.81425951     0.07100
C979        C  0.30569586  0.36836327  0.79611661     0.09000
C980        C  0.28513536  0.35309257  0.78331682    -0.17800
C981        C  0.22183742  0.26429417  0.66563491    -0.16900
C982        C  0.23792253  0.25414575  0.64423717     0.07100
C983        C  0.25852448  0.24174419  0.62069854     0.09000
C984        C  0.27453311  0.23134969  0.59936009    -0.17800
C985        C  0.26947697  0.21472209  0.90650736    -0.16900
C986        C  0.25548668  0.23342902  0.89015110     0.07100
C987        C  0.23884859  0.25831846  0.87521298     0.09000
C988        C  0.22519141  0.27732346  0.85891441    -0.17800
C989        C  0.09134689  0.34596830  0.80783983    -0.16900
C990        C  0.07202807  0.35863062  0.82470628     0.07100
C991        C  0.05163274  0.37522604  0.84551678     0.09000
C992        C  0.03310597  0.38927772  0.86217527    -0.17800
C993        C  0.10369774  0.45982190  0.65842051    -0.16900
C994        C  0.11894666  0.43924296  0.67121374     0.07100
C995        C  0.13688661  0.41747426  0.68933672     0.09000
C996        C  0.15013017  0.39799953  0.70556758    -0.17800
C997        C  0.71051407  0.14130527  0.78343754    -0.16900
C998        C  0.68995164  0.12603529  0.79623662     0.07100
C999        C  0.66820672  0.10806395  0.81436114     0.09000
C1000       C  0.64874382  0.09479870  0.83059193    -0.17800
C1001       C  0.77377143  0.23002712  0.66572853    -0.16900
C1002       C  0.75767617  0.24016676  0.64433453     0.07100
C1003       C  0.73706703  0.25255465  0.62079471     0.09000
C1004       C  0.72105160  0.26293367  0.59945389    -0.17800
C1005       C  0.77050954  0.21694457  0.85899119    -0.16900
C1006       C  0.75682580  0.23592013  0.87530538     0.07100
C1007       C  0.74015200  0.26077340  0.89026991     0.09000
C1008       C  0.72612735  0.27946189  0.90662245    -0.17800
C1009       C  0.85561824  0.28224639  0.77782880    -0.16900
C1010       C  0.86958800  0.30069243  0.79467704     0.07100
C1011       C  0.88604278  0.32107624  0.81566279     0.09000
C1012       C  0.89859632  0.34040284  0.83263381    -0.17800
C1013       C  0.78507704  0.85308576  0.53347258    -0.16900
C1014       C  0.80563157  0.86834711  0.54629087     0.07100
C1015       C  0.82737379  0.88629361  0.56443739     0.09000
C1016       C  0.84684281  0.89953441  0.58067733    -0.17800
C1017       C  0.89893419  0.84068090  0.68290738    -0.16900
C1018       C  0.88629030  0.82135547  0.69978017     0.07100
C1019       C  0.86971144  0.80094115  0.72058818     0.09000
C1020       C  0.85566530  0.78239622  0.73723216    -0.17800
C1021       C  0.89192334  0.03446629  0.65843030    -0.16900
C1022       C  0.87666195  0.05503650  0.67122417     0.07100
C1023       C  0.85870573  0.07679209  0.68934778     0.09000
C1024       C  0.84545279  0.09625971  0.70558044    -0.17800
C1025       C  0.14005987  0.71190190  0.73709406    -0.16900
C1026       C  0.12602595  0.69334894  0.72045565     0.07100
C1027       C  0.10944687  0.67292612  0.69966436     0.09000
C1028       C  0.09679220  0.65359391  0.68281378    -0.17800
C1029       C  0.22104608  0.76293482  0.84938485    -0.16900
C1030       C  0.23706110  0.75254361  0.87071887     0.07100
C1031       C  0.25767675  0.74014456  0.89424611     0.09000
C1032       C  0.27377393  0.72999604  0.91563350    -0.17800
C1033       C  0.27047254  0.71703005  0.60892158    -0.16900
C1034       C  0.25681633  0.73603470  0.62522149     0.07100
C1035       C  0.24017139  0.76091569  0.64016477     0.09000
C1036       C  0.22617073  0.77960974  0.65652678    -0.17800
C1037       C  0.09112372  0.84643567  0.70750644    -0.16900
C1038       C  0.07179868  0.85900500  0.69054291     0.07100
C1039       C  0.05140565  0.87547479  0.66957619     0.09000
C1040       C  0.03293916  0.88944366  0.65274779    -0.17800
C1041       C  0.09721361  0.15377725  0.83260041    -0.16900
C1042       C  0.10979645  0.17310589  0.81564628     0.07100
C1043       C  0.12625994  0.19350768  0.79467608     0.09000
C1044       C  0.14020981  0.21197537  0.77782845    -0.17800
C1045       C  0.21066674  0.14059095  0.98337119    -0.16900
C1046       C  0.18987173  0.12552800  0.97070911     0.07100
C1047       C  0.16778438  0.10796228  0.95261367     0.09000
C1048       C  0.14818075  0.09505330  0.93627435    -0.17800
C1049       C  0.98059616  0.97115396  0.54067041    -0.16900
C1050       C  0.99074433  0.98723634  0.51927051     0.07100
C1051       C  0.00314280  0.00783574  0.99572709     0.09000
C1052       C  0.01353067  0.02384605  0.97438596    -0.17800
C1053       C  0.03022010  0.01875835  0.78158002    -0.16900
C1054       C  0.01154516  0.00471323  0.76523569     0.07100
C1055       C  0.98668523  0.98804063  0.75029049     0.09000
C1056       C  0.96768886  0.97439080  0.73397781    -0.17800
C1057       C  0.96258827  0.10500253  0.86213412    -0.16900
C1058       C  0.94405265  0.11904716  0.84548425     0.07100
C1059       C  0.92364454  0.13562187  0.82467628     0.09000
C1060       C  0.90431473  0.14826524  0.80781296    -0.17800
C1061       C  0.10422456  0.95998239  0.85835401    -0.16900
C1062       C  0.11926730  0.93918774  0.84566816     0.07100
C1063       C  0.13681962  0.91710310  0.82755583     0.09000
C1064       C  0.14973269  0.89750524  0.81121265    -0.17800
C1065       C  0.39839531  0.84050766  0.58260953    -0.16900
C1066       C  0.38581094  0.82119208  0.56564453     0.07100
C1067       C  0.36934762  0.80080537  0.54466067     0.09000
C1068       C  0.35540028  0.78234655  0.52780423    -0.17800
C1069       C  0.51495316  0.02312137  0.79070231    -0.16900
C1070       C  0.50479108  0.00703936  0.76931109     0.07100
C1071       C  0.49238862  0.98643946  0.74577303     0.09000
C1072       C  0.48200985  0.97042643  0.72443240    -0.17800
C1073       C  0.46552258  0.97550291  0.53162690    -0.16900
C1074       C  0.48420361  0.98955196  0.51528774     0.07100
C1075       C  0.50905191  0.00623555  0.00032798     0.09000
C1076       C  0.52802773  0.01989784  0.98399755    -0.17800
C1077       C  0.34588224  0.09676035  0.56117562    -0.16900
C1078       C  0.35881853  0.07716437  0.57750655     0.07100
C1079       C  0.37639350  0.05508596  0.59560984     0.09000
C1080       C  0.39144504  0.03429806  0.60830062    -0.17800
C1081       C  0.34738462  0.89926533  0.68625221    -0.16900
C1082       C  0.32778203  0.88636477  0.70260372     0.07100
C1083       C  0.30570612  0.86880303  0.72072146     0.09000
C1084       C  0.28492142  0.85373581  0.73339996    -0.17800
C1085       C  0.59128338  0.84600891  0.55783733    -0.16900
C1086       C  0.57195014  0.85863514  0.57471177     0.07100
C1087       C  0.55154254  0.87519335  0.59553616     0.09000
C1088       C  0.53301133  0.88923138  0.61219854    -0.17800
loop_ 
_geom_bond_atom_site_label_1 
_geom_bond_atom_site_label_2 
_geom_bond_distance 
_geom_bond_site_symmetry_2 
_ccdc_geom_bond_type 
Fe1          O17   2.098       .  S
Fe1           O7   2.009       .  S
Fe1          O14   2.032       .  S
Fe1           O6   2.115   1_565  S
Fe1          O12   1.934       .  S
Fe2           O5   2.122       .  S
Fe2           O9   2.043       .  S
Fe2          O13   2.134       .  S
Fe2          O18   2.041       .  S
Fe2          O12   1.935       .  S
Fe3          O21   2.037       .  S
Fe3           O8   2.115       .  S
Fe3          O15   2.126       .  S
Fe3           O4   2.037       .  S
Fe3          O12   1.936       .  S
O4           C11   1.263   1_565  A
O5           C19   1.280       .  A
O6           C11   1.278       .  A
O7           C10   1.255       .  A
O8           C20   1.280       .  A
O9           C22   1.262       .  A
C10          O15   1.279       .  A
C10         C529   1.427       .  S
C11         C536   1.437       .  S
O13          C16   1.283       .  A
O14          C16   1.264       .  A
C16         C528   1.446       .  S
O17          C22   1.274       .  A
O18          C20   1.266       .  A
C19          O21   1.263       .  A
C19         C521   1.441       .  S
C20         C537   1.438       .  S
C22         C544   1.439       .  S
Fe23         O39   2.098   1_455  S
Fe23         O29   2.009       .  S
Fe23         O36   2.032       .  S
Fe23         O28   2.114   1_545  S
Fe23         O34   1.934       .  S
Fe24         O27   2.121       .  S
Fe24         O31   2.043       .  S
Fe24         O35   2.134       .  S
Fe24         O40   2.041       .  S
Fe24         O34   1.935       .  S
Fe25         O43   2.037       .  S
Fe25         O30   2.115       .  S
Fe25         O37   2.126       .  S
Fe25         O26   2.037       .  S
Fe25         O34   1.936       .  S
O26          C33   1.263   1_545  A
O27          C41   1.280       .  A
O28          C33   1.278       .  A
O29          C32   1.255       .  A
O30          C42   1.280       .  A
O31          C44   1.262   1_455  A
C32          O37   1.279       .  A
C32         C509   1.427       .  S
C33         C517   1.437       .  S
O35          C38   1.283       .  A
O36          C38   1.264       .  A
C38         C508   1.446       .  S
O39          C44   1.274       .  A
O40          C42   1.266       .  A
C41          O43   1.263       .  A
C41         C497   1.441       .  S
C42         C504   1.438       .  S
C44         C513   1.439       .  S
Fe45         O61   2.098       .  S
Fe45         O51   2.009       .  S
Fe45         O58   2.032       .  S
Fe45         O50   2.114       .  S
Fe45         O56   1.934       .  S
Fe46         O49   2.121       .  S
Fe46         O53   2.043       .  S
Fe46         O57   2.134       .  S
Fe46         O62   2.041       .  S
Fe46         O56   1.935       .  S
Fe47         O65   2.037       .  S
Fe47         O52   2.115       .  S
Fe47         O59   2.126       .  S
Fe47         O48   2.037       .  S
Fe47         O56   1.936       .  S
O48          C55   1.263       .  A
O49          C63   1.279       .  A
O50          C55   1.278       .  A
O51          C54   1.255       .  A
O52          C64   1.280       .  A
O53          C66   1.262       .  A
C54          O59   1.279       .  A
C54         C492   1.427       .  S
C55         C540   1.437       .  S
O57          C60   1.283       .  A
O58          C60   1.264       .  A
C60         C485   1.445       .  S
O61          C66   1.274       .  A
O62          C64   1.266       .  A
C63          O65   1.263       .  A
C63         C493   1.441       .  S
C64         C520   1.438       .  S
C66         C481   1.439       .  S
Fe67         O83   2.032       .  S
Fe67         O73   2.116   1_565  S
Fe67         O80   2.099   1_655  S
Fe67         O72   2.008       .  S
Fe67         O78   1.933       .  S
Fe68         O71   2.040       .  S
Fe68         O75   2.134       .  S
Fe68         O79   2.044       .  S
Fe68         O84   2.120       .  S
Fe68         O78   1.934       .  S
Fe69         O87   2.117       .  S
Fe69         O74   2.035       .  S
Fe69         O81   2.036       .  S
Fe69         O70   2.127       .  S
Fe69         O78   1.934       .  S
O70          C77   1.279       .  A
O71          C85   1.266       .  A
O72          C77   1.254       .  A
O73          C76   1.278       .  A
O74          C86   1.263       .  A
O75          C88   1.283       .  A
C76          O81   1.263   1_545  A
C76         C477   1.437       .  S
C77         C512   1.427       .  S
O79          C82   1.263   1_655  A
O80          C82   1.274       .  A
C82         C496   1.441       .  S
O83          C88   1.263       .  A
O84          C86   1.279       .  A
C85          O87   1.281       .  A
C85         C472   1.438       .  S
C86         C473   1.439       .  S
C88         C505   1.445       .  S
Fe89        O105   2.032       .  S
Fe89         O95   2.116       .  S
Fe89        O102   2.099       .  S
Fe89         O94   2.008       .  S
Fe89        O100   1.933       .  S
Fe90         O93   2.040       .  S
Fe90         O97   2.134       .  S
Fe90        O101   2.044       .  S
Fe90        O106   2.120       .  S
Fe90        O100   1.934       .  S
Fe91        O109   2.117       .  S
Fe91         O96   2.035       .  S
Fe91        O103   2.036       .  S
Fe91         O92   2.127       .  S
Fe91        O100   1.934       .  S
O92          C99   1.279       .  A
O93         C107   1.266       .  A
O94          C99   1.254       .  A
O95          C98   1.278       .  A
O96         C108   1.263       .  A
O97         C110   1.283       .  A
C98         O103   1.263       .  A
C98         C453   1.437       .  S
C99         C461   1.427       .  S
O101        C104   1.263       .  A
O102        C104   1.274       .  A
C104        C465   1.441       .  S
O105        C110   1.263       .  A
O106        C108   1.279       .  A
C107        O109   1.281       .  A
C107        C480   1.438       .  S
C108        C516   1.439       .  S
C110        C457   1.445       .  S
Fe111       O127   2.032       .  S
Fe111       O117   2.116       .  S
Fe111       O124   2.099       .  S
Fe111       O116   2.008       .  S
Fe111       O122   1.933       .  S
Fe112       O115   2.040       .  S
Fe112       O119   2.134       .  S
Fe112       O123   2.044       .  S
Fe112       O128   2.120       .  S
Fe112       O122   1.934       .  S
Fe113       O131   2.117       .  S
Fe113       O118   2.035       .  S
Fe113       O125   2.036       .  S
Fe113       O114   2.127       .  S
Fe113       O122   1.934       .  S
O114        C121   1.279       .  A
O115        C129   1.266       .  A
O116        C121   1.254       .  A
O117        C120   1.278       .  A
O118        C130   1.263       .  A
O119        C132   1.283       .  A
C120        O125   1.263       .  A
C120        C436   1.437       .  S
C121        C444   1.427       .  S
O123        C126   1.263       .  A
O124        C126   1.274       .  A
C126        C500   1.441       .  S
O127        C132   1.263       .  A
O128        C130   1.279       .  A
C129        O131   1.281       .  A
C129        C452   1.438       .  S
C130        C445   1.439       .  S
C132        C437   1.445       .  S
Fe133       O149   2.032       .  S
Fe133       O139   2.116       .  S
Fe133       O146   2.099   1_455  S
Fe133       O138   2.008       .  S
Fe133       O144   1.933       .  S
Fe134       O137   2.040       .  S
Fe134       O141   2.134       .  S
Fe134       O145   2.044       .  S
Fe134       O150   2.120       .  S
Fe134       O144   1.934       .  S
Fe135       O153   2.117       .  S
Fe135       O140   2.035       .  S
Fe135       O147   2.036       .  S
Fe135       O136   2.127       .  S
Fe135       O144   1.934       .  S
O136        C143   1.279       .  A
O137        C151   1.266       .  A
O138        C143   1.254       .  A
O139        C142   1.278       .  A
O140        C152   1.263       .  A
O141        C154   1.283       .  A
C142        O147   1.263       .  A
C142        C449   1.437       .  S
C143        C428   1.427       .  S
O145        C148   1.263   1_455  A
O146        C148   1.274       .  A
C148        C420   1.441       .  S
O149        C154   1.263       .  A
O150        C152   1.279       .  A
C151        O153   1.281       .  A
C151        C429   1.438       .  S
C152        C484   1.439       .  S
C154        C424   1.445       .  S
Fe155       O171   2.098   1_655  S
Fe155       O161   2.009       .  S
Fe155       O168   2.032       .  S
Fe155       O160   2.115       .  S
Fe155       O166   1.934       .  S
Fe156       O159   2.121       .  S
Fe156       O163   2.043       .  S
Fe156       O167   2.134       .  S
Fe156       O172   2.041       .  S
Fe156       O166   1.935       .  S
Fe157       O175   2.037       .  S
Fe157       O162   2.116       .  S
Fe157       O169   2.126       .  S
Fe157       O158   2.038       .  S
Fe157       O166   1.936       .  S
O158        C165   1.263       .  A
O159        C173   1.279       .  A
O160        C165   1.278       .  A
O161        C164   1.255       .  A
O162        C174   1.280       .  A
O163        C176   1.262   1_655  A
C164        O169   1.279       .  A
C164        C425   1.427       .  S
C165        C409   1.438       .  S
O167        C170   1.283       .  A
O168        C170   1.264       .  A
C170        C421   1.446       .  S
O171        C176   1.274       .  A
O172        C174   1.266       .  A
C173        O175   1.263       .  A
C173        C468   1.441       .  S
C174        C413   1.439       .  S
C176        C448   1.439       .  S
Fe177       O183   2.116       .  S
Fe177       O190   2.099       .  S
Fe177       O182   2.007       .  S
Fe177       O737   2.032   1_554  S
Fe177       O188   1.933       .  S
Fe178       O181   2.040       .  S
Fe178       O185   2.134       .  S
Fe178       O733   2.044       .  S
Fe178       O738   2.120       .  S
Fe178       O732   1.934       .  S
Fe179       O197   2.117       .  S
Fe179       O184   2.035       .  S
Fe179       O191   2.036       .  S
Fe179       O180   2.127       .  S
Fe179       O188   1.934       .  S
O180        C187   1.279       .  A
O181        C195   1.266       .  A
O182        C187   1.254       .  A
O183        C186   1.278       .  A
O184        C196   1.263       .  A
O185        C198   1.283       .  A
C186        O191   1.263       .  A
C186        C432   1.437       .  S
C187        C489   1.427       .  S
O188       Fe722   1.934   1_554  S
O189       Fe722   2.044   1_554  S
O189        C192   1.263       .  A
O190        C192   1.274       .  A
C192        C524   1.441       .  S
O193       Fe721   2.032       .  S
O193        C198   1.263       .  A
O194       Fe722   2.120   1_554  S
O194        C196   1.279       .  A
C195        O741   1.281       .  A
C195        C401   1.438       .  S
C196        C405   1.439       .  S
O197        C739   1.281   1_554  A
C198        C488   1.445       .  S
Fe199       O215   2.098       .  S
Fe199       O205   2.009       .  S
Fe199       O756   2.032       .  S
Fe199       O748   2.115       .  S
Fe199       O754   1.934       .  S
Fe200       O207   2.044       .  S
Fe200       O211   2.134       .  S
Fe200       O216   2.041       .  S
Fe200       O747   2.121       .  S
Fe200       O210   1.935       .  S
Fe201       O219   2.037       .  S
Fe201       O213   2.127       .  S
Fe201       O202   2.038       .  S
Fe201       O750   2.116       .  S
Fe201       O754   1.936       .  S
O202        C209   1.263       .  A
O203       Fe744   2.121       .  S
O203        C217   1.279       .  A
O204       Fe743   2.115   1_556  S
O204        C753   1.278       .  A
O205        C208   1.255       .  A
O206       Fe745   2.116   1_554  S
O206        C218   1.280       .  A
O207        C220   1.262       .  A
C208        O213   1.279       .  A
C208        C464   1.427       .  S
C209        O748   1.278       .  A
C209        C416   1.438       .  S
O210       Fe743   1.934       .  S
O210       Fe745   1.936   1_554  S
O211        C214   1.283       .  A
O212       Fe743   2.032       .  S
O212        C214   1.264       .  A
C214        C460   1.446       .  S
O215        C764   1.274       .  A
O216        C218   1.266       .  A
C217        O219   1.263       .  A
C217        C389   1.441       .  S
C218        C393   1.439       .  S
C220        O759   1.274       .  A
C220        C944   1.439   1_554  S
Fe221       O237   2.032       .  S
Fe221       O227   2.116       .  S
Fe221       O234   2.099       .  S
Fe221       O226   2.008       .  S
Fe221       O232   1.933       .  S
Fe222       O225   2.040       .  S
Fe222       O229   2.133       .  S
Fe222       O233   2.044       .  S
Fe222       O238   2.120       .  S
Fe222       O232   1.934       .  S
Fe223       O241   2.117       .  S
Fe223       O228   2.035       .  S
Fe223       O235   2.036       .  S
Fe223       O224   2.128       .  S
Fe223       O232   1.934       .  S
O224        C231   1.279       .  A
O225        C239   1.266       .  A
O226        C231   1.254       .  A
O227        C230   1.278       .  A
O228        C240   1.263       .  A
O229        C242   1.283       .  A
C230        O235   1.263       .  A
C230        C404   1.437       .  S
C231        C381   1.427       .  S
O233        C236   1.263       .  A
O234        C236   1.274       .  A
C236        C392   1.441       .  S
O237        C242   1.263       .  A
O238        C240   1.279       .  A
C239        O241   1.281       .  A
C239        C433   1.438       .  S
C240        C385   1.439       .  S
C242        C377   1.445       .  S
Fe243       O259   2.098       .  S
Fe243       O249   2.009       .  S
Fe243       O800   2.032       .  S
Fe243       O792   2.114       .  S
Fe243       O798   1.934       .  S
Fe244       O251   2.043       .  S
Fe244       O255   2.134       .  S
Fe244       O260   2.041       .  S
Fe244       O791   2.121       .  S
Fe244       O254   1.935       .  S
Fe245       O263   2.037       .  S
Fe245       O257   2.126       .  S
Fe245       O246   2.037       .  S
Fe245       O794   2.116       .  S
Fe245       O798   1.936       .  S
O246        C253   1.263       .  A
O247       Fe788   2.121       .  S
O247        C261   1.279       .  A
O248       Fe787   2.114   1_556  S
O248        C797   1.278       .  A
O249        C252   1.255       .  A
O250       Fe789   2.116   1_554  S
O250        C262   1.280       .  A
O251        C264   1.262       .  A
C252        O257   1.279       .  A
C252        C441   1.427       .  S
C253        O792   1.278       .  A
C253        C501   1.437       .  S
O254       Fe787   1.934       .  S
O254       Fe789   1.936   1_554  S
O255        C258   1.283       .  A
O256       Fe787   2.032       .  S
O256        C258   1.264       .  A
C258        C440   1.446       .  S
O259        C808   1.274       .  A
O260        C262   1.266       .  A
C261        O263   1.263       .  A
C261        C376   1.441       .  S
C262        C533   1.438       .  S
C264        O803   1.274       .  A
C264        C932   1.439   1_554  S
Fe265       O281   2.032       .  S
Fe265       O271   2.116   1_545  S
Fe265       O278   2.099       .  S
Fe265       O270   2.008       .  S
Fe265       O276   1.933       .  S
Fe266       O269   2.040       .  S
Fe266       O273   2.134       .  S
Fe266       O277   2.044       .  S
Fe266       O282   2.120       .  S
Fe266       O276   1.934       .  S
Fe267       O285   2.117       .  S
Fe267       O272   2.035       .  S
Fe267       O279   2.036       .  S
Fe267       O268   2.127       .  S
Fe267       O276   1.934       .  S
O268        C275   1.279       .  A
O269        C283   1.266       .  A
O270        C275   1.254       .  A
O271        C274   1.278       .  A
O272        C284   1.263       .  A
O273        C286   1.283       .  A
C274        O279   1.263   1_565  A
C274        C372   1.437       .  S
C275        C532   1.427       .  S
O277        C280   1.263       .  A
O278        C280   1.274       .  A
C280        C373   1.441       .  S
O281        C286   1.263       .  A
O282        C284   1.279       .  A
C283        O285   1.281       .  A
C283        C456   1.438       .  S
C284        C397   1.439       .  S
C286        C525   1.445       .  S
Fe287       O293   2.116       .  S
Fe287       O300   2.099       .  S
Fe287       O292   2.008       .  S
Fe287       O847   2.032   1_554  S
Fe287       O298   1.933       .  S
Fe288       O291   2.040       .  S
Fe288       O295   2.134       .  S
Fe288       O843   2.044       .  S
Fe288       O848   2.120       .  S
Fe288       O842   1.934       .  S
Fe289       O307   2.117       .  S
Fe289       O294   2.035       .  S
Fe289       O301   2.036       .  S
Fe289       O290   2.127       .  S
Fe289       O298   1.934       .  S
O290        C297   1.279       .  A
O291        C305   1.266       .  A
O292        C297   1.254       .  A
O293        C296   1.278       .  A
O294        C306   1.263       .  A
O295        C308   1.283       .  A
C296        O301   1.263       .  A
C296        C469   1.437       .  S
C297        C368   1.427       .  S
O298       Fe832   1.934   1_554  S
O299       Fe832   2.044   1_554  S
O299        C302   1.263       .  A
O300        C302   1.274       .  A
C302        C360   1.441       .  S
O303       Fe831   2.032       .  S
O303        C308   1.263       .  A
O304       Fe832   2.120   1_554  S
O304        C306   1.279       .  A
C305        O851   1.281       .  A
C305        C369   1.438       .  S
C306        C541   1.439       .  S
O307        C849   1.281   1_554  A
C308        C364   1.445       .  S
Fe309       O325   2.098       .  S
Fe309       O315   2.009       .  S
Fe309       O322   2.032       .  S
Fe309       O314   2.115       .  S
Fe309       O320   1.934       .  S
Fe310       O313   2.121       .  S
Fe310       O317   2.043       .  S
Fe310       O321   2.134       .  S
Fe310       O326   2.041       .  S
Fe310       O320   1.935       .  S
Fe311       O329   2.037       .  S
Fe311       O316   2.116       .  S
Fe311       O323   2.127       .  S
Fe311       O312   2.038       .  S
Fe311       O320   1.936       .  S
O312        C319   1.263       .  A
O313        C327   1.279       .  A
O314        C319   1.278       .  A
O315        C318   1.255       .  A
O316        C328   1.280       .  A
O317        C330   1.262       .  A
C318        O323   1.279       .  A
C318        C365   1.427       .  S
C319        C353   1.438       .  S
O321        C324   1.283       .  A
O322        C324   1.264       .  A
C324        C361   1.446       .  S
O325        C330   1.274       .  A
O326        C328   1.266       .  A
C327        O329   1.263       .  A
C327        C417   1.441       .  S
C328        C412   1.439       .  S
C330        C476   1.439       .  S
Fe331       O347   2.098       .  S
Fe331       O337   2.009       .  S
Fe331       O344   2.032       .  S
Fe331       O336   2.115       .  S
Fe331       O342   1.934       .  S
Fe332       O335   2.121       .  S
Fe332       O339   2.043       .  S
Fe332       O343   2.134       .  S
Fe332       O348   2.041       .  S
Fe332       O342   1.935       .  S
Fe333       O351   2.037       .  S
Fe333       O338   2.116       .  S
Fe333       O345   2.127       .  S
Fe333       O334   2.038       .  S
Fe333       O342   1.936       .  S
O334        C341   1.263       .  A
O335        C349   1.279       .  A
O336        C341   1.278       .  A
O337        C340   1.255       .  A
O338        C350   1.280       .  A
O339        C352   1.262       .  A
C340        O345   1.279       .  A
C340        C384   1.427       .  S
C341        C396   1.438       .  S
O343        C346   1.283       .  A
O344        C346   1.264       .  A
C346        C380   1.446       .  S
O347        C352   1.274       .  A
O348        C350   1.266       .  A
C349        O351   1.263       .  A
C349        C357   1.441       .  S
C350        C356   1.439       .  S
C352        C408   1.439       .  S
C353        C354   1.209       .  T
C354        C355   1.417       .  S
C355        C356   1.209       .  T
C357        C358   1.210       .  T
C358        C359   1.420       .  S
C359        C360   1.210       .  T
C361        C362   1.213       .  T
C362        C363   1.424       .  S
C363        C364   1.213       .  T
C365        C366   1.205       .  T
C366        C367   1.413       .  S
C367        C368   1.205       .  T
C369        C370   1.209       .  T
C370        C371   1.417       .  S
C371        C372   1.209       .  T
C373        C374   1.210       .  T
C374        C375   1.419       .  S
C375        C376   1.210       .  T
C377        C378   1.212       .  T
C378        C379   1.424       .  S
C379        C380   1.213       .  T
C381        C382   1.205       .  T
C382        C927   1.413       .  S
C383        C384   1.205       .  T
C383        C926   1.413       .  S
C385        C386   1.209       .  T
C386        C387   1.418       .  S
C387        C388   1.209       .  T
C388        C808   1.439       .  S
C389        C390   1.210       .  T
C390        C391   1.420       .  S
C391        C392   1.210       .  T
C393        C394   1.209       .  T
C394        C395   1.417       .  S
C395        C396   1.209       .  T
C397        C398   1.209       .  T
C398        C399   1.418       .  S
C399        C400   1.209       .  T
C400        C764   1.439       .  S
C401        C402   1.209       .  T
C402        C403   1.417       .  S
C403        C404   1.209       .  T
C405        C406   1.209       .  T
C406        C407   1.418       .  S
C407        C408   1.209       .  T
C409        C410   1.209       .  T
C410        C411   1.417       .  S
C411        C412   1.209       .  T
C413        C414   1.209       .  T
C414        C415   1.417       .  S
C415        C416   1.209       .  T
C417        C418   1.210       .  T
C418        C419   1.420       .  S
C419        C420   1.210       .  T
C421        C422   1.213       .  T
C422        C967   1.424   1_655  S
C423        C424   1.213       .  T
C423        C966   1.424   1_454  S
C425        C426   1.205       .  T
C426        C427   1.413   1_655  S
C427        C428   1.205       .  T
C429        C430   1.209       .  T
C430        C431   1.417       .  S
C431        C432   1.209       .  T
C433        C434   1.209       .  T
C434        C435   1.417       .  S
C435        C436   1.209       .  T
C437        C438   1.213       .  T
C438        C439   1.424       .  S
C439        C440   1.213       .  T
C441        C442   1.205       .  T
C442        C443   1.412       .  S
C443        C444   1.205       .  T
C445        C446   1.209       .  T
C446        C447   1.418       .  S
C447        C448   1.209       .  T
C449        C450   1.209       .  T
C450        C451   1.417       .  S
C451        C452   1.209       .  T
C453        C454   1.209       .  T
C454        C455   1.417       .  S
C455        C456   1.209       .  T
C457        C458   1.213       .  T
C458        C459   1.424       .  S
C459        C460   1.213       .  T
C461        C462   1.205       .  T
C462        C463   1.413       .  S
C463        C464   1.205       .  T
C465        C466   1.210       .  T
C466        C467   1.420       .  S
C467        C468   1.210       .  T
C469        C470   1.209       .  T
C470        C471   1.417       .  S
C471        C472   1.209       .  T
C473        C474   1.209       .  T
C474        C475   1.418       .  S
C475        C476   1.209       .  T
C477        C478   1.209       .  T
C478        C479   1.417       .  S
C479        C480   1.209       .  T
C481        C482   1.209       .  T
C482        C483   1.418       .  S
C483        C484   1.209       .  T
C485        C486   1.213       .  T
C486        C487   1.424       .  S
C487        C488   1.212       .  T
C489        C490   1.205       .  T
C490        C491   1.412       .  S
C491        C492   1.205       .  T
C493        C494   1.210       .  T
C494        C495   1.420       .  S
C495        C496   1.210       .  T
C497        C498   1.210       .  T
C498        C499   1.420       .  S
C499        C500   1.210       .  T
C501        C502   1.209       .  T
C502        C503   1.416       .  S
C503        C504   1.209       .  T
C505        C506   1.213       .  T
C506       C1051   1.424   1_664  S
C507        C508   1.213       .  T
C507       C1050   1.424   1_445  S
C509        C510   1.205       .  T
C510        C511   1.412   1_445  S
C511        C512   1.205       .  T
C513        C514   1.209       .  T
C514        C515   1.418       .  S
C515        C516   1.209       .  T
C517        C518   1.209       .  T
C518        C519   1.416       .  S
C519        C520   1.209       .  T
C521        C522   1.210       .  T
C522        C523   1.420       .  S
C523        C524   1.210       .  T
C525        C526   1.213       .  T
C526        C527   1.424   1_545  S
C527        C528   1.213       .  T
C529        C530   1.205       .  T
C530       C1075   1.412   1_565  S
C531        C532   1.205       .  T
C531       C1074   1.412   1_545  S
C533        C534   1.209       .  T
C534        C535   1.417       .  S
C535        C536   1.209       .  T
C537        C538   1.209       .  T
C538        C539   1.416       .  S
C539        C540   1.209       .  T
C541        C542   1.209       .  T
C542        C543   1.418       .  S
C543        C544   1.209       .  T
Fe545       O561   2.098       .  S
Fe545       O551   2.009       .  S
Fe545       O558   2.032       .  S
Fe545       O550   2.115   1_565  S
Fe545       O556   1.934       .  S
Fe546       O549   2.122       .  S
Fe546       O553   2.043       .  S
Fe546       O557   2.134       .  S
Fe546       O562   2.041       .  S
Fe546       O556   1.935       .  S
Fe547       O565   2.037       .  S
Fe547       O552   2.115       .  S
Fe547       O559   2.126       .  S
Fe547       O548   2.037       .  S
Fe547       O556   1.936       .  S
O548        C555   1.263   1_565  A
O549        C563   1.280       .  A
O550        C555   1.278       .  A
O551        C554   1.255       .  A
O552        C564   1.280       .  A
O553        C566   1.262       .  A
C554        O559   1.279       .  A
C554       C1073   1.427       .  S
C555       C1080   1.437       .  S
O557        C560   1.283       .  A
O558        C560   1.264       .  A
C560       C1072   1.446       .  S
O561        C566   1.274       .  A
O562        C564   1.266       .  A
C563        O565   1.263       .  A
C563       C1065   1.441       .  S
C564       C1081   1.438       .  S
C566       C1088   1.439       .  S
Fe567       O583   2.098   1_455  S
Fe567       O573   2.009       .  S
Fe567       O580   2.032       .  S
Fe567       O572   2.114   1_545  S
Fe567       O578   1.934       .  S
Fe568       O571   2.121       .  S
Fe568       O575   2.043       .  S
Fe568       O579   2.134       .  S
Fe568       O584   2.041       .  S
Fe568       O578   1.935       .  S
Fe569       O587   2.037       .  S
Fe569       O574   2.115       .  S
Fe569       O581   2.126       .  S
Fe569       O570   2.037       .  S
Fe569       O578   1.936       .  S
O570        C577   1.263   1_545  A
O571        C585   1.280       .  A
O572        C577   1.278       .  A
O573        C576   1.255       .  A
O574        C586   1.280       .  A
O575        C588   1.262   1_455  A
C576        O581   1.279       .  A
C576       C1053   1.427       .  S
C577       C1061   1.437       .  S
O579        C582   1.283       .  A
O580        C582   1.264       .  A
C582       C1052   1.446       .  S
O583        C588   1.274       .  A
O584        C586   1.266       .  A
C585        O587   1.263       .  A
C585       C1041   1.441       .  S
C586       C1048   1.438       .  S
C588       C1057   1.439       .  S
Fe589       O605   2.098       .  S
Fe589       O595   2.009       .  S
Fe589       O602   2.032       .  S
Fe589       O594   2.114       .  S
Fe589       O600   1.934       .  S
Fe590       O593   2.121       .  S
Fe590       O597   2.043       .  S
Fe590       O601   2.134       .  S
Fe590       O606   2.041       .  S
Fe590       O600   1.935       .  S
Fe591       O609   2.037       .  S
Fe591       O596   2.115       .  S
Fe591       O603   2.126       .  S
Fe591       O592   2.037       .  S
Fe591       O600   1.936       .  S
O592        C599   1.263       .  A
O593        C607   1.279       .  A
O594        C599   1.278       .  A
O595        C598   1.255       .  A
O596        C608   1.280       .  A
O597        C610   1.262       .  A
C598        O603   1.279       .  A
C598       C1036   1.427       .  S
C599       C1084   1.437       .  S
O601        C604   1.283       .  A
O602        C604   1.264       .  A
C604       C1029   1.445       .  S
O605        C610   1.274       .  A
O606        C608   1.266       .  A
C607        O609   1.263       .  A
C607       C1037   1.441       .  S
C608       C1064   1.438       .  S
C610       C1025   1.439       .  S
Fe611       O627   2.032       .  S
Fe611       O617   2.116   1_565  S
Fe611       O624   2.099   1_655  S
Fe611       O616   2.008       .  S
Fe611       O622   1.933       .  S
Fe612       O615   2.040       .  S
Fe612       O619   2.134       .  S
Fe612       O623   2.044       .  S
Fe612       O628   2.120       .  S
Fe612       O622   1.934       .  S
Fe613       O631   2.117       .  S
Fe613       O618   2.035       .  S
Fe613       O625   2.036       .  S
Fe613       O614   2.127       .  S
Fe613       O622   1.934       .  S
O614        C621   1.279       .  A
O615        C629   1.266       .  A
O616        C621   1.254       .  A
O617        C620   1.278       .  A
O618        C630   1.263       .  A
O619        C632   1.283       .  A
C620        O625   1.263   1_545  A
C620       C1021   1.437       .  S
C621       C1056   1.427       .  S
O623        C626   1.263   1_655  A
O624        C626   1.274       .  A
C626       C1040   1.441       .  S
O627        C632   1.263       .  A
O628        C630   1.279       .  A
C629        O631   1.281       .  A
C629       C1016   1.438       .  S
C630       C1017   1.439       .  S
C632       C1049   1.445       .  S
Fe633       O649   2.032       .  S
Fe633       O639   2.116       .  S
Fe633       O646   2.099       .  S
Fe633       O638   2.008       .  S
Fe633       O644   1.933       .  S
Fe634       O637   2.040       .  S
Fe634       O641   2.134       .  S
Fe634       O645   2.044       .  S
Fe634       O650   2.120       .  S
Fe634       O644   1.934       .  S
Fe635       O653   2.117       .  S
Fe635       O640   2.035       .  S
Fe635       O647   2.036       .  S
Fe635       O636   2.127       .  S
Fe635       O644   1.934       .  S
O636        C643   1.279       .  A
O637        C651   1.266       .  A
O638        C643   1.254       .  A
O639        C642   1.278       .  A
O640        C652   1.263       .  A
O641        C654   1.283       .  A
C642        O647   1.263       .  A
C642        C997   1.437       .  S
C643       C1005   1.427       .  S
O645        C648   1.263       .  A
O646        C648   1.274       .  A
C648       C1009   1.441       .  S
O649        C654   1.263       .  A
O650        C652   1.279       .  A
C651        O653   1.281       .  A
C651       C1024   1.438       .  S
C652       C1060   1.439       .  S
C654       C1001   1.445       .  S
Fe655       O671   2.032       .  S
Fe655       O661   2.116       .  S
Fe655       O668   2.099       .  S
Fe655       O660   2.008       .  S
Fe655       O666   1.933       .  S
Fe656       O659   2.040       .  S
Fe656       O663   2.134       .  S
Fe656       O667   2.044       .  S
Fe656       O672   2.120       .  S
Fe656       O666   1.934       .  S
Fe657       O675   2.117       .  S
Fe657       O662   2.035       .  S
Fe657       O669   2.036       .  S
Fe657       O658   2.127       .  S
Fe657       O666   1.934       .  S
O658        C665   1.279       .  A
O659        C673   1.266       .  A
O660        C665   1.254       .  A
O661        C664   1.278       .  A
O662        C674   1.263       .  A
O663        C676   1.283       .  A
C664        O669   1.263       .  A
C664        C980   1.437       .  S
C665        C988   1.427       .  S
O667        C670   1.263       .  A
O668        C670   1.274       .  A
C670       C1044   1.441       .  S
O671        C676   1.263       .  A
O672        C674   1.279       .  A
C673        O675   1.281       .  A
C673        C996   1.438       .  S
C674        C989   1.439       .  S
C676        C981   1.445       .  S
Fe677       O693   2.032       .  S
Fe677       O683   2.116       .  S
Fe677       O690   2.099   1_455  S
Fe677       O682   2.008       .  S
Fe677       O688   1.933       .  S
Fe678       O681   2.040       .  S
Fe678       O685   2.134       .  S
Fe678       O689   2.044       .  S
Fe678       O694   2.120       .  S
Fe678       O688   1.934       .  S
Fe679       O697   2.117       .  S
Fe679       O684   2.035       .  S
Fe679       O691   2.036       .  S
Fe679       O680   2.127       .  S
Fe679       O688   1.934       .  S
O680        C687   1.279       .  A
O681        C695   1.266       .  A
O682        C687   1.254       .  A
O683        C686   1.278       .  A
O684        C696   1.263       .  A
O685        C698   1.283       .  A
C686        O691   1.263       .  A
C686        C993   1.437       .  S
C687        C972   1.427       .  S
O689        C692   1.263   1_455  A
O690        C692   1.274       .  A
C692        C964   1.441       .  S
O693        C698   1.263       .  A
O694        C696   1.279       .  A
C695        O697   1.281       .  A
C695        C973   1.438       .  S
C696       C1028   1.439       .  S
C698        C968   1.445       .  S
Fe699       O715   2.098   1_655  S
Fe699       O705   2.009       .  S
Fe699       O712   2.032       .  S
Fe699       O704   2.115       .  S
Fe699       O710   1.934       .  S
Fe700       O703   2.121       .  S
Fe700       O707   2.043       .  S
Fe700       O711   2.134       .  S
Fe700       O716   2.041       .  S
Fe700       O710   1.935       .  S
Fe701       O719   2.037       .  S
Fe701       O706   2.116       .  S
Fe701       O713   2.126       .  S
Fe701       O702   2.038       .  S
Fe701       O710   1.936       .  S
O702        C709   1.263       .  A
O703        C717   1.279       .  A
O704        C709   1.278       .  A
O705        C708   1.255       .  A
O706        C718   1.280       .  A
O707        C720   1.262   1_655  A
C708        O713   1.279       .  A
C708        C969   1.427       .  S
C709        C953   1.438       .  S
O711        C714   1.283       .  A
O712        C714   1.264       .  A
C714        C965   1.446       .  S
O715        C720   1.274       .  A
O716        C718   1.266       .  A
C717        O719   1.263       .  A
C717       C1012   1.441       .  S
C718        C957   1.439       .  S
C720        C992   1.439       .  S
Fe721       O727   2.116       .  S
Fe721       O734   2.099       .  S
Fe721       O726   2.007       .  S
Fe721       O732   1.933       .  S
Fe722       O725   2.040       .  S
Fe722       O729   2.134       .  S
Fe723       O741   2.117       .  S
Fe723       O728   2.035       .  S
Fe723       O735   2.036       .  S
Fe723       O724   2.127       .  S
Fe723       O732   1.934       .  S
O724        C731   1.279       .  A
O725        C739   1.266       .  A
O726        C731   1.254       .  A
O727        C730   1.278       .  A
O728        C740   1.263       .  A
O729        C742   1.283       .  A
C730        O735   1.263       .  A
C730        C976   1.437       .  S
C731       C1033   1.427       .  S
O733        C736   1.263       .  A
O734        C736   1.274       .  A
C736       C1068   1.441       .  S
O737        C742   1.263       .  A
O738        C740   1.279       .  A
C739        C945   1.438       .  S
C740        C949   1.439       .  S
C742       C1032   1.445       .  S
Fe743       O759   2.098       .  S
Fe743       O749   2.009   1_554  S
Fe744       O751   2.044       .  S
Fe744       O755   2.134       .  S
Fe744       O760   2.041       .  S
Fe744       O754   1.935       .  S
Fe745       O763   2.037       .  S
Fe745       O757   2.127       .  S
Fe745       O746   2.038       .  S
O746        C753   1.263       .  A
O747        C761   1.279   1_554  A
O749        C752   1.255       .  A
O750        C762   1.280       .  A
O751        C764   1.262       .  A
C752        O757   1.279       .  A
C752       C1008   1.427       .  S
C753        C960   1.438       .  S
O755        C758   1.283       .  A
O756        C758   1.264       .  A
C758       C1004   1.446       .  S
O760        C762   1.266       .  A
C761        O763   1.263       .  A
C761        C933   1.441       .  S
C762        C937   1.439       .  S
Fe765       O781   2.032       .  S
Fe765       O771   2.116       .  S
Fe765       O778   2.099       .  S
Fe765       O770   2.008       .  S
Fe765       O776   1.933       .  S
Fe766       O769   2.040       .  S
Fe766       O773   2.133       .  S
Fe766       O777   2.044       .  S
Fe766       O782   2.120       .  S
Fe766       O776   1.934       .  S
Fe767       O785   2.117       .  S
Fe767       O772   2.035       .  S
Fe767       O779   2.036       .  S
Fe767       O768   2.128       .  S
Fe767       O776   1.934       .  S
O768        C775   1.279       .  A
O769        C783   1.266       .  A
O770        C775   1.254       .  A
O771        C774   1.278       .  A
O772        C784   1.263       .  A
O773        C786   1.283       .  A
C774        O779   1.263       .  A
C774        C948   1.437       .  S
C775        C925   1.427       .  S
O777        C780   1.263       .  A
O778        C780   1.274       .  A
C780        C936   1.441       .  S
O781        C786   1.263       .  A
O782        C784   1.279       .  A
C783        O785   1.281       .  A
C783        C977   1.438       .  S
C784        C929   1.439       .  S
C786        C921   1.445       .  S
Fe787       O803   2.098       .  S
Fe787       O793   2.009   1_554  S
Fe788       O795   2.043       .  S
Fe788       O799   2.134       .  S
Fe788       O804   2.041       .  S
Fe788       O798   1.935       .  S
Fe789       O807   2.037       .  S
Fe789       O801   2.126       .  S
Fe789       O790   2.037       .  S
O790        C797   1.263       .  A
O791        C805   1.279   1_554  A
O793        C796   1.255       .  A
O794        C806   1.280       .  A
O795        C808   1.262       .  A
C796        O801   1.279       .  A
C796        C985   1.427       .  S
C797       C1045   1.437       .  S
O799        C802   1.283       .  A
O800        C802   1.264       .  A
C802        C984   1.446       .  S
O804        C806   1.266       .  A
C805        O807   1.263       .  A
C805        C920   1.441       .  S
C806       C1077   1.438       .  S
Fe809       O825   2.032       .  S
Fe809       O815   2.116   1_545  S
Fe809       O822   2.099       .  S
Fe809       O814   2.008       .  S
Fe809       O820   1.933       .  S
Fe810       O813   2.040       .  S
Fe810       O817   2.134       .  S
Fe810       O821   2.044       .  S
Fe810       O826   2.120       .  S
Fe810       O820   1.934       .  S
Fe811       O829   2.117       .  S
Fe811       O816   2.035       .  S
Fe811       O823   2.036       .  S
Fe811       O812   2.127       .  S
Fe811       O820   1.934       .  S
O812        C819   1.279       .  A
O813        C827   1.266       .  A
O814        C819   1.254       .  A
O815        C818   1.278       .  A
O816        C828   1.263       .  A
O817        C830   1.283       .  A
C818        O823   1.263   1_565  A
C818        C916   1.437       .  S
C819       C1076   1.427       .  S
O821        C824   1.263       .  A
O822        C824   1.274       .  A
C824        C917   1.441       .  S
O825        C830   1.263       .  A
O826        C828   1.279       .  A
C827        O829   1.281       .  A
C827       C1000   1.438       .  S
C828        C941   1.439       .  S
C830       C1069   1.445       .  S
Fe831       O837   2.116       .  S
Fe831       O844   2.099       .  S
Fe831       O836   2.008       .  S
Fe831       O842   1.933       .  S
Fe832       O835   2.040       .  S
Fe832       O839   2.134       .  S
Fe833       O851   2.117       .  S
Fe833       O838   2.035       .  S
Fe833       O845   2.036       .  S
Fe833       O834   2.127       .  S
Fe833       O842   1.934       .  S
O834        C841   1.279       .  A
O835        C849   1.266       .  A
O836        C841   1.254       .  A
O837        C840   1.278       .  A
O838        C850   1.263       .  A
O839        C852   1.283       .  A
C840        O845   1.263       .  A
C840       C1013   1.437       .  S
C841        C912   1.427       .  S
O843        C846   1.263       .  A
O844        C846   1.274       .  A
C846        C904   1.441       .  S
O847        C852   1.263       .  A
O848        C850   1.279       .  A
C849        C913   1.438       .  S
C850       C1085   1.439       .  S
C852        C908   1.445       .  S
Fe853       O869   2.098       .  S
Fe853       O859   2.009       .  S
Fe853       O866   2.032       .  S
Fe853       O858   2.115       .  S
Fe853       O864   1.934       .  S
Fe854       O857   2.121       .  S
Fe854       O861   2.043       .  S
Fe854       O865   2.134       .  S
Fe854       O870   2.041       .  S
Fe854       O864   1.935       .  S
Fe855       O873   2.037       .  S
Fe855       O860   2.116       .  S
Fe855       O867   2.127       .  S
Fe855       O856   2.038       .  S
Fe855       O864   1.936       .  S
O856        C863   1.263       .  A
O857        C871   1.279       .  A
O858        C863   1.278       .  A
O859        C862   1.255       .  A
O860        C872   1.280       .  A
O861        C874   1.262       .  A
C862        O867   1.279       .  A
C862        C909   1.427       .  S
C863        C897   1.438       .  S
O865        C868   1.283       .  A
O866        C868   1.264       .  A
C868        C905   1.446       .  S
O869        C874   1.274       .  A
O870        C872   1.266       .  A
C871        O873   1.263       .  A
C871        C961   1.441       .  S
C872        C956   1.439       .  S
C874       C1020   1.439       .  S
Fe875       O891   2.098       .  S
Fe875       O881   2.009       .  S
Fe875       O888   2.032       .  S
Fe875       O880   2.115       .  S
Fe875       O886   1.934       .  S
Fe876       O879   2.121       .  S
Fe876       O883   2.043       .  S
Fe876       O887   2.134       .  S
Fe876       O892   2.041       .  S
Fe876       O886   1.935       .  S
Fe877       O895   2.037       .  S
Fe877       O882   2.116       .  S
Fe877       O889   2.127       .  S
Fe877       O878   2.038       .  S
Fe877       O886   1.936       .  S
O878        C885   1.263       .  A
O879        C893   1.279       .  A
O880        C885   1.278       .  A
O881        C884   1.255       .  A
O882        C894   1.280       .  A
O883        C896   1.262       .  A
C884        O889   1.279       .  A
C884        C928   1.427       .  S
C885        C940   1.438       .  S
O887        C890   1.283       .  A
O888        C890   1.264       .  A
C890        C924   1.446       .  S
O891        C896   1.274       .  A
O892        C894   1.266       .  A
C893        O895   1.263       .  A
C893        C901   1.441       .  S
C894        C900   1.439       .  S
C896        C952   1.439       .  S
C897        C898   1.209       .  T
C898        C899   1.417       .  S
C899        C900   1.209       .  T
C901        C902   1.210       .  T
C902        C903   1.420       .  S
C903        C904   1.210       .  T
C905        C906   1.213       .  T
C906        C907   1.424       .  S
C907        C908   1.213       .  T
C909        C910   1.205       .  T
C910        C911   1.413       .  S
C911        C912   1.205       .  T
C913        C914   1.209       .  T
C914        C915   1.417       .  S
C915        C916   1.209       .  T
C917        C918   1.210       .  T
C918        C919   1.419       .  S
C919        C920   1.210       .  T
C921        C922   1.212       .  T
C922        C923   1.424       .  S
C923        C924   1.213       .  T
C925        C926   1.205   1_556  T
C927        C928   1.205       .  T
C929        C930   1.209       .  T
C930        C931   1.418       .  S
C931        C932   1.209       .  T
C933        C934   1.210       .  T
C934        C935   1.420       .  S
C935        C936   1.210       .  T
C937        C938   1.209       .  T
C938        C939   1.417       .  S
C939        C940   1.209       .  T
C941        C942   1.209       .  T
C942        C943   1.418       .  S
C943        C944   1.209       .  T
C945        C946   1.209       .  T
C946        C947   1.417       .  S
C947        C948   1.209       .  T
C949        C950   1.209       .  T
C950        C951   1.418       .  S
C951        C952   1.209       .  T
C953        C954   1.209       .  T
C954        C955   1.417       .  S
C955        C956   1.209       .  T
C957        C958   1.209       .  T
C958        C959   1.417       .  S
C959        C960   1.209       .  T
C961        C962   1.210       .  T
C962        C963   1.420       .  S
C963        C964   1.210       .  T
C965        C966   1.213       .  T
C967        C968   1.213       .  T
C969        C970   1.205       .  T
C970        C971   1.413   1_655  S
C971        C972   1.205       .  T
C973        C974   1.209       .  T
C974        C975   1.417       .  S
C975        C976   1.209       .  T
C977        C978   1.209       .  T
C978        C979   1.417       .  S
C979        C980   1.209       .  T
C981        C982   1.213       .  T
C982        C983   1.424       .  S
C983        C984   1.213       .  T
C985        C986   1.205       .  T
C986        C987   1.413       .  S
C987        C988   1.205       .  T
C989        C990   1.209       .  T
C990        C991   1.418       .  S
C991        C992   1.209       .  T
C993        C994   1.209       .  T
C994        C995   1.417       .  S
C995        C996   1.209       .  T
C997        C998   1.209       .  T
C998        C999   1.417       .  S
C999       C1000   1.209       .  T
C1001      C1002   1.213       .  T
C1002      C1003   1.424       .  S
C1003      C1004   1.213       .  T
C1005      C1006   1.205       .  T
C1006      C1007   1.413       .  S
C1007      C1008   1.205       .  T
C1009      C1010   1.210       .  T
C1010      C1011   1.420       .  S
C1011      C1012   1.210       .  T
C1013      C1014   1.209       .  T
C1014      C1015   1.417       .  S
C1015      C1016   1.209       .  T
C1017      C1018   1.209       .  T
C1018      C1019   1.418       .  S
C1019      C1020   1.209       .  T
C1021      C1022   1.209       .  T
C1022      C1023   1.417       .  S
C1023      C1024   1.209       .  T
C1025      C1026   1.209       .  T
C1026      C1027   1.418       .  S
C1027      C1028   1.209       .  T
C1029      C1030   1.213       .  T
C1030      C1031   1.424       .  S
C1031      C1032   1.212       .  T
C1033      C1034   1.205       .  T
C1034      C1035   1.413       .  S
C1035      C1036   1.205       .  T
C1037      C1038   1.210       .  T
C1038      C1039   1.420       .  S
C1039      C1040   1.210       .  T
C1041      C1042   1.210       .  T
C1042      C1043   1.420       .  S
C1043      C1044   1.210       .  T
C1045      C1046   1.209       .  T
C1046      C1047   1.416       .  S
C1047      C1048   1.209       .  T
C1049      C1050   1.213       .  T
C1051      C1052   1.213       .  T
C1053      C1054   1.205       .  T
C1054      C1055   1.412   1_445  S
C1055      C1056   1.205       .  T
C1057      C1058   1.209       .  T
C1058      C1059   1.418       .  S
C1059      C1060   1.209       .  T
C1061      C1062   1.209       .  T
C1062      C1063   1.416       .  S
C1063      C1064   1.209       .  T
C1065      C1066   1.210       .  T
C1066      C1067   1.420       .  S
C1067      C1068   1.210       .  T
C1069      C1070   1.213       .  T
C1070      C1071   1.424   1_545  S
C1071      C1072   1.213       .  T
C1073      C1074   1.205       .  T
C1075      C1076   1.205   1_554  T
C1077      C1078   1.209       .  T
C1078      C1079   1.417       .  S
C1079      C1080   1.209       .  T
C1081      C1082   1.209       .  T
C1082      C1083   1.416       .  S
C1083      C1084   1.209       .  T
C1085      C1086   1.209       .  T
C1086      C1087   1.418       .  S
C1087      C1088   1.209       .  T
