geometry optimzed in LAMMPS
_audit_creation_date              2020-12-01 
_audit_creation_method            'lammps2cif' 
_symmetry_space_group_name_H-M    'P1' 
_symmetry_Int_Tables_number       1 
_symmetry_cell_setting            triclinic 
loop_ 
_symmetry_equiv_pos_as_xyz 
  x,y,z 
_cell_length_a                    53.99582191 
_cell_length_b                    53.85845614045719 
_cell_length_c                    32.96431982821652 
_cell_angle_alpha                 89.70809091127738 
_cell_angle_beta                  90.19820244856182 
_cell_angle_gamma                 120.34207121172633 
loop_ 
_atom_site_label 
_atom_site_type_symbol 
_atom_site_fract_x 
_atom_site_fract_y 
_atom_site_fract_z 
_atom_site_charge 
Zn1        Zn  0.83633246  0.29159059  0.25528108     1.49700
Zn2        Zn  0.89163588  0.30576406  0.31043632     1.49400
Zn3        Zn  0.84570063  0.24303697  0.29129631     1.49100
Zn4        Zn  0.88642265  0.28158273  0.22233344     1.49500
O5          O  0.86513671  0.28113677  0.26932390    -1.83300
O6          O  0.84251151  0.32452912  0.29147673    -0.74000
O7          O  0.89756771  0.28261984  0.35426409    -0.73800
O8          O  0.80706171  0.23306243  0.31057129    -0.73300
O9          O  0.87812291  0.33157513  0.33295593    -0.74000
O10         O  0.79591967  0.25856432  0.26861192    -0.73600
O11         O  0.86802204  0.23768369  0.33536950    -0.74200
O12         O  0.87275363  0.24087565  0.20303684    -0.73600
O13         O  0.93113084  0.32990833  0.28689357    -0.74300
O14         O  0.84000003  0.21472376  0.24918947    -0.73700
O15         O  0.92919341  0.30378355  0.23370555    -0.74200
O16         O  0.87926059  0.30264265  0.17772366    -0.74100
O17         O  0.84106451  0.30553458  0.19606006    -0.73900
C18         C  0.85906559  0.33745148  0.32140859     0.77900
C19         C  0.88800513  0.25570337  0.35809166     0.78400
C20         C  0.78885911  0.23875416  0.29516964     0.77400
C21         C  0.85310418  0.21655399  0.21647169     0.77700
C22         C  0.94351999  0.32420178  0.25867593     0.78900
C23         C  0.86071507  0.31009290  0.17056204     0.77900
Zn24       Zn  0.94253919  0.21637906  0.57484083     1.49700
Zn25       Zn  0.93799117  0.15965756  0.61118652     1.49400
Zn26       Zn  0.95698982  0.17784278  0.51710616     1.49100
Zn27       Zn  0.99845312  0.21391241  0.58827756     1.49500
O28         O  0.95870605  0.19144529  0.57261798    -1.83300
O29         O  0.90661599  0.19981305  0.60842962    -0.74000
O30         O  0.92198652  0.12156986  0.58153127    -0.73800
O31         O  0.94371505  0.19807301  0.47719619    -0.73300
O32         O  0.90245581  0.15931736  0.63184717    -0.74000
O33         O  0.93167614  0.22205405  0.51968086    -0.73600
O34         O  0.92861322  0.13533416  0.51662271    -0.74200
O35         O  0.02330647  0.20550484  0.55222550    -0.73600
O36         O  0.96285943  0.16404938  0.66128333    -0.74300
O37         O  0.99560707  0.18322403  0.49910538    -0.73700
O38         O  0.00292775  0.20445445  0.64555918    -0.74200
O39         O  0.01234925  0.25642307  0.58571535    -0.74100
O40         O  0.97156136  0.25653457  0.59146811    -0.73900
C41         C  0.89272447  0.17638792  0.62828696     0.77900
C42         C  0.91758699  0.11570708  0.54371965     0.78400
C43         C  0.93400102  0.21492546  0.48389343     0.77400
C44         C  0.01967831  0.19392237  0.51744788     0.77700
C45         C  0.98804896  0.18431972  0.67064459     0.78900
C46         C  0.99883816  0.26998683  0.58981762     0.77900
Zn47       Zn  0.94066061  0.38138784  0.95602045     1.49700
Zn48       Zn  0.93930278  0.42110693  0.88695847     1.49400
Zn49       Zn  0.92186045  0.35870346  0.86531629     1.49100
Zn50       Zn  0.88008947  0.37090470  0.92242070     1.49500
O51         O  0.91996588  0.38248783  0.90818286    -1.83300
O52         O  0.97017025  0.42129224  0.97441596    -0.74000
O53         O  0.96443003  0.42643268  0.83940726    -0.73800
O54         O  0.94088322  0.33748641  0.88611454    -0.73300
O55         O  0.96527438  0.44854084  0.92792933    -0.74000
O56         O  0.95883116  0.35709330  0.94611743    -0.73600
O57         O  0.94759692  0.38186136  0.81828880    -0.74200
O58         O  0.85342179  0.33588001  0.88872339    -0.73600
O59         O  0.91094188  0.43269808  0.87206031    -0.74300
O60         O  0.88207955  0.32978730  0.84663318    -0.73700
O61         O  0.87135965  0.40302851  0.90671653    -0.74200
O62         O  0.87197209  0.35906696  0.98297825    -0.74100
O63         O  0.91386879  0.36446865  0.00278865    -0.73900
C64         C  0.97639246  0.44582481  0.96037805     0.77900
C65         C  0.96492961  0.40880334  0.81451179     0.78400
C66         C  0.95603577  0.34020180  0.91722913     0.77400
C67         C  0.85707547  0.32243306  0.85971245     0.77700
C68         C  0.88562050  0.42495333  0.88373330     0.78900
C69         C  0.88799451  0.35730704  0.01018924     0.77900
Zn70       Zn  0.11112991  0.50609112  0.56156516     1.49700
Zn71       Zn  0.11665748  0.45162102  0.58120930     1.49400
Zn72       Zn  0.11012879  0.48619480  0.65367314     1.49100
Zn73       Zn  0.05780302  0.44773980  0.59450704     1.49500
O74         O  0.09894507  0.47321373  0.59796694    -1.83300
O75         O  0.13176435  0.50273745  0.51168172    -0.74000
O76         O  0.14986447  0.46098382  0.61715971    -0.73800
O77         O  0.12301205  0.52826764  0.65599388    -0.73300
O78         O  0.13100461  0.46173714  0.52400783    -0.74000
O79         O  0.13259692  0.54383004  0.59223870    -0.73600
O80         O  0.14439991  0.48245460  0.67090773    -0.74200
O81         O  0.03994942  0.44263284  0.64911210    -0.73600
O82         O  0.08878312  0.40892477  0.58414107    -0.74300
O83         O  0.07617869  0.46489072  0.69247423    -0.73700
O84         O  0.04717877  0.40754103  0.57921484    -0.74200
O85         O  0.03967848  0.46347182  0.55708716    -0.74100
O86         O  0.07644487  0.50620536  0.53967696    -0.73900
C87         C  0.13638823  0.48272734  0.50055437     0.77900
C88         C  0.15814521  0.47265230  0.65182399     0.78400
C89         C  0.13229046  0.54867608  0.63006339     0.77400
C90         C  0.04936654  0.44906771  0.68520415     0.77700
C91         C  0.06157237  0.39475272  0.58070920     0.78900
C92         C  0.04980117  0.48763617  0.53907521     0.77900
Zn93       Zn  0.05790623  0.26208642  0.88815352     1.49700
Zn94       Zn  0.04423486  0.20015350  0.92179131     1.49400
Zn95       Zn  0.09648627  0.25896819  0.95570370     1.49100
Zn96       Zn  0.03462546  0.24254833  0.97924792     1.49500
O97         O  0.05771904  0.24038677  0.93566725    -1.83300
O98         O  0.03923301  0.23519960  0.84156931    -0.74000
O99         O  0.07578928  0.19075028  0.93545523    -0.73800
O100        O  0.12450395  0.28291026  0.91340303    -0.73300
O101        O  0.03153389  0.19234783  0.86193906    -0.74000
O102        O  0.09842085  0.29027270  0.86847369    -0.73600
O103        O  0.10668809  0.22958816  0.97073417    -0.74200
O104        O  0.05874241  0.26863339  0.02508268    -0.73600
O105        O  0.00952077  0.17388881  0.95619280    -0.74300
O106        O  0.10296154  0.28572643  0.00185800    -0.73700
O107        O  0.00549976  0.20297175  0.99998476    -0.74200
O108        O  0.01380559  0.26193181  0.95821855    -0.74100
O109        O  0.03514701  0.28172025  0.89960607    -0.73900
C110        C  0.03053293  0.20881660  0.83472203     0.77900
C111        C  0.09822288  0.20440376  0.95750197     0.78400
C112        C  0.12266138  0.29452370  0.88088095     0.77400
C113        C  0.08563492  0.28623610  0.02734082     0.77700
C114        C  0.99720888  0.17783586  0.98640534     0.78900
C115        C  0.01761961  0.27826776  0.92796155     0.77900
Zn116      Zn  0.12187851  0.38288482  0.24409117     1.49700
Zn117      Zn  0.17963439  0.43755765  0.27524644     1.49400
Zn118      Zn  0.16012424  0.43461387  0.18234930     1.49100
Zn119      Zn  0.12450710  0.44118086  0.25434157     1.49500
O120        O  0.14688853  0.42409795  0.23854735    -1.83300
O121        O  0.13722704  0.36586213  0.28436351    -0.74000
O122        O  0.21759328  0.45845984  0.24479213    -0.73800
O123        O  0.14063771  0.39888218  0.14540909    -0.73300
O124        O  0.17985546  0.40350809  0.29926611    -0.74000
O125        O  0.11924542  0.36426175  0.19126138    -0.73600
O126        O  0.20274943  0.44909698  0.18066671    -0.74200
O127        O  0.13427790  0.47411835  0.21770913    -0.73600
O128        O  0.17581496  0.45895603  0.32380117    -0.74300
O129        O  0.15523515  0.46843767  0.16341576    -0.73700
O130        O  0.13399754  0.45614115  0.31136169    -0.74200
O131        O  0.08183381  0.41298390  0.25125964    -0.74100
O132        O  0.08092501  0.37146039  0.25578221    -0.73900
C133        C  0.16161256  0.37677827  0.30167896     0.77900
C134        C  0.22281802  0.45854353  0.20699883     0.78400
C135        C  0.12621500  0.37212065  0.15472678     0.77400
C136        C  0.14598087  0.48253271  0.18308406     0.77700
C137        C  0.15522964  0.46269064  0.33473157     0.78900
C138        C  0.06792895  0.38563617  0.25391813     0.77900
Zn139      Zn  0.12096608  0.69278330  0.69652147     1.49700
Zn140      Zn  0.17457505  0.70542110  0.75203440     1.49400
Zn141      Zn  0.16815677  0.75637909  0.71282013     1.49100
Zn142      Zn  0.12738406  0.72047211  0.78353861     1.49500
O143        O  0.14796956  0.71850870  0.73668011    -1.83300
O144        O  0.13113758  0.66365600  0.67697693    -0.74000
O145        O  0.21547758  0.73602892  0.73679793    -0.73800
O146        O  0.14773555  0.75969918  0.66422845    -0.73300
O147        O  0.16456651  0.66903593  0.72158268    -0.74000
O148        O  0.11579942  0.71437077  0.65020664    -0.73600
O149        O  0.20817874  0.76701006  0.70076027    -0.74200
O150        O  0.14086149  0.76139812  0.80009896    -0.73600
O151        O  0.17151805  0.69602210  0.81255451    -0.74300
O152        O  0.17176561  0.78640487  0.75125464    -0.73700
O153        O  0.13650282  0.70386456  0.83132717    -0.74200
O154        O  0.08447024  0.69759948  0.77428292    -0.74100
O155        O  0.08193361  0.67136462  0.72084339    -0.73900
C156        C  0.14771307  0.65564522  0.69217786     0.77900
C157        C  0.22467196  0.75861254  0.71491700     0.78400
C158        C  0.12690423  0.74114461  0.64304594     0.77400
C159        C  0.15948325  0.78526871  0.78450270     0.77700
C160        C  0.15466803  0.69613955  0.83950520     0.78900
C161        C  0.06993933  0.67732438  0.74927423     0.77900
Zn162      Zn  0.03109288  0.77695296  0.46921029     1.49700
Zn163      Zn  0.09356209  0.82296775  0.44840818     1.49400
Zn164      Zn  0.05437011  0.78357916  0.37878618     1.49100
Zn165      Zn  0.04441741  0.83329298  0.41464682     1.49500
O166        O  0.05523354  0.80415281  0.42740463    -1.83300
O167        O  0.05403151  0.77332411  0.51558891    -0.74000
O168        O  0.12112473  0.82492663  0.40812697    -0.73800
O169        O  0.03249897  0.74060499  0.38864403    -0.73300
O170        O  0.09851919  0.80349842  0.49609702    -0.74000
O171        O  0.01020093  0.73689663  0.44672160    -0.73600
O172        O  0.09448647  0.79670553  0.35782884    -0.74200
O173        O  0.03113367  0.82987909  0.35495837    -0.73600
O174        O  0.10597773  0.86273907  0.46289532    -0.74300
O175        O  0.03363246  0.79165730  0.33534214    -0.73700
O176        O  0.07745866  0.87421738  0.42878910    -0.74200
O177        O  0.01025805  0.82487735  0.45052575    -0.74100
O178        O  0.00265940  0.78779765  0.48965655    -0.73900
C179        C  0.08100242  0.78439437  0.52030949     0.77900
C180        C  0.11883698  0.81354062  0.37378500     0.78400
C181        C  0.01466371  0.72532221  0.41613398     0.77400
C182        C  0.02657973  0.81057440  0.32878391     0.77700
C183        C  0.09932157  0.88110631  0.45130221     0.78900
C184        C  0.99635538  0.80670365  0.47865753     0.77900
Zn185      Zn  0.88999419  0.55582159  0.74830232     1.49700
Zn186      Zn  0.85421398  0.56194864  0.81845326     1.49400
Zn187      Zn  0.89266457  0.61449122  0.75946243     1.49100
Zn188      Zn  0.83621753  0.56096537  0.72326514     1.49500
O189        O  0.86773084  0.57314023  0.76260979    -1.83300
O190        O  0.88097458  0.52277692  0.78506945    -0.74000
O191        O  0.87416141  0.59647008  0.85748520    -0.73800
O192        O  0.93311597  0.62584030  0.74621252    -0.73300
O193        O  0.85889986  0.52819154  0.83802700    -0.74000
O194        O  0.93220843  0.58437801  0.75222949    -0.73600
O195        O  0.89700925  0.63223203  0.81347725    -0.74200
O196        O  0.83677776  0.59598144  0.69927459    -0.73600
O197        O  0.81200636  0.54807554  0.81754221    -0.74300
O198        O  0.87726772  0.63292646  0.72211539    -0.73700
O199        O  0.79801380  0.53980941  0.75290041    -0.74200
O200        O  0.84027981  0.53896233  0.67501185    -0.74100
O201        O  0.88116887  0.54120167  0.69146272    -0.73900
C202        C  0.86931964  0.51463824  0.81980351     0.77900
C203        C  0.89006309  0.62329690  0.84967659     0.78400
C204        C  0.94605621  0.61165332  0.74897461     0.77400
C205        C  0.85435486  0.62297182  0.70126746     0.77700
C206        C  0.79233035  0.53931609  0.79059919     0.78900
C207        C  0.86092169  0.53473037  0.66626272     0.77900
Zn208      Zn  0.95969730  0.73713001  0.10835878     1.49700
Zn209      Zn  0.97227139  0.79891160  0.07892531     1.49400
Zn210      Zn  0.98587073  0.75828203  0.02142194     1.49100
Zn211      Zn  0.92341975  0.74221370  0.03934729     1.49500
O212        O  0.96104234  0.75976580  0.06245840    -1.83300
O213        O  0.97670163  0.76252536  0.15659792    -0.74000
O214        O  0.00637368  0.82612344  0.04482373    -0.73800
O215        O  0.00900951  0.74176877  0.04499015    -0.73300
O216        O  0.98378157  0.80563039  0.13935361    -0.74000
O217        O  0.98167852  0.71684138  0.09738760    -0.73600
O218        O  0.01269301  0.79837381  0.00099602    -0.74200
O219        O  0.91823054  0.71530700  0.99420822    -0.73600
O220        O  0.94015956  0.80757859  0.06564089    -0.74300
O221        O  0.96304923  0.73017597  0.97603483    -0.73700
O222        O  0.91486752  0.77225713  0.02170548    -0.74200
O223        O  0.89387922  0.71855802  0.08008787    -0.74100
O224        O  0.91905810  0.70923102  0.12422179    -0.73900
C225        C  0.98442409  0.78840547  0.16561178     0.77900
C226        C  0.01943153  0.82313623  0.01472096     0.78400
C227        C  0.00210976  0.72285673  0.07273986     0.77400
C228        C  0.93611651  0.71331987  0.97150977     0.77700
C229        C  0.92061951  0.79577641  0.03860492     0.78900
C230        C  0.89518539  0.70568520  0.11165662     0.77900
Zn231      Zn  0.11465490  0.65677527  0.08372809     1.49700
Zn232      Zn  0.05682640  0.59961446  0.09448376     1.49400
Zn233      Zn  0.11166174  0.59919524  0.05805740     1.49100
Zn234      Zn  0.10951323  0.61358050  0.15288857     1.49500
O235        O  0.09815438  0.61692986  0.09766381    -1.83300
O236        O  0.08565058  0.66958341  0.08444108    -0.74000
O237        O  0.03947979  0.56480292  0.05881786    -0.73800
O238        O  0.13255277  0.62550866  0.01002492    -0.73300
O239        O  0.04478878  0.62832282  0.07881914    -0.74000
O240        O  0.12995329  0.66374201  0.02752158    -0.73600
O241        O  0.07777961  0.56477175  0.03417013    -0.74200
O242        O  0.12464580  0.58633650  0.15031546    -0.73600
O243        O  0.03953090  0.58553394  0.14862407    -0.74300
O244        O  0.13344576  0.58226116  0.08554983    -0.73700
O245        O  0.07506910  0.59634307  0.19195556    -0.74200
O246        O  0.14202912  0.65250660  0.17329843    -0.74100
O247        O  0.14675968  0.68096365  0.12115325    -0.73900
C248        C  0.05855432  0.65570257  0.07947134     0.77900
C249        C  0.05076728  0.55349095  0.03751113     0.78400
C250        C  0.13624085  0.65030713  0.00175156     0.77400
C251        C  0.13381313  0.57627533  0.12295125     0.77700
C252        C  0.04839098  0.58586929  0.18443343     0.78900
C253        C  0.15494359  0.67698900  0.15557235     0.77900
Zn254      Zn  0.87448673  0.49519050  0.41374893     1.49700
Zn255      Zn  0.93361642  0.50025506  0.38376930     1.49400
Zn256      Zn  0.92013202  0.54771650  0.35820097     1.49100
Zn257      Zn  0.93639715  0.54337738  0.44965055     1.49500
O258        O  0.91564202  0.52151157  0.40183903    -1.83300
O259        O  0.86339554  0.45377420  0.39904543    -0.74000
O260        O  0.95936372  0.51800482  0.33524378    -0.73800
O261        O  0.88190640  0.53888136  0.33656133    -0.73300
O262        O  0.90405428  0.45989919  0.37232259    -0.74000
O263        O  0.85011665  0.50583236  0.37846189    -0.73600
O264        O  0.94597447  0.54841733  0.31376352    -0.74200
O265        O  0.95426534  0.58624205  0.44037793    -0.73600
O266        O  0.95836497  0.49854738  0.42671746    -0.74300
O267        O  0.93978918  0.58831248  0.37800202    -0.73700
O268        O  0.96652313  0.53391084  0.46857166    -0.74200
O269        O  0.90883348  0.53205598  0.49561668    -0.74100
O270        O  0.86576555  0.49818717  0.47398522    -0.73900
C271        C  0.87773728  0.44398273  0.38144399     0.77900
C272        C  0.96148755  0.53694584  0.31011264     0.78400
C273        C  0.85609755  0.52303750  0.34849858     0.77400
C274        C  0.95301038  0.60063951  0.41043255     0.77700
C275        C  0.97101074  0.51390803  0.45746267     0.78900
C276        C  0.88237476  0.51433921  0.50212423     0.77900
Zn277      Zn  0.71773125  0.54190924  0.24889554     1.49700
Zn278      Zn  0.72704881  0.60149754  0.21243009     1.49400
Zn279      Zn  0.70438544  0.58394083  0.30214963     1.49100
Zn280      Zn  0.76783341  0.60259266  0.28070061     1.49500
O281        O  0.72895420  0.58199728  0.26096612    -1.83300
O282        O  0.70429895  0.53181761  0.18977369    -0.74000
O283        O  0.70585634  0.62275221  0.22239167    -0.73800
O284        O  0.67599619  0.54432129  0.32278155    -0.73300
O285        O  0.70507888  0.57190205  0.17057554    -0.74000
O286        O  0.68359150  0.51532161  0.28361048    -0.73600
O287        O  0.68227226  0.60159482  0.27922327    -0.74200
O288        O  0.77255215  0.62698736  0.32900182    -0.73600
O289        O  0.76630593  0.62848180  0.18902024    -0.74300
O290        O  0.72762641  0.61082364  0.34779055    -0.73700
O291        O  0.79407524  0.62846311  0.23847538    -0.74200
O292        O  0.78179435  0.57559933  0.29267298    -0.74100
O293        O  0.75012965  0.53418263  0.26362458    -0.73900
C294        C  0.69849261  0.54599622  0.16408859     0.77900
C295        C  0.68713526  0.61834189  0.24917362     0.78400
C296        C  0.66950899  0.51914067  0.31140799     0.77400
C297        C  0.75449805  0.62768525  0.35288007     0.77700
C298        C  0.79110929  0.63671003  0.20361429     0.78900
C299        C  0.77370149  0.54987243  0.28242923     0.77900
Zn300      Zn  0.84515550  0.76689972  0.61333870     1.49700
Zn301      Zn  0.79225071  0.77487889  0.59008195     1.49400
Zn302      Zn  0.82905980  0.76960423  0.51956570     1.49100
Zn303      Zn  0.78776593  0.71541725  0.57506361     1.49500
O304        O  0.81391541  0.75676493  0.57445019    -1.83300
O305        O  0.84218377  0.78941142  0.66150419    -0.74000
O306        O  0.80168332  0.80797964  0.55336467    -0.73800
O307        O  0.87088390  0.78204819  0.51960805    -0.73300
O308        O  0.80285824  0.79078093  0.64594269    -0.74000
O309        O  0.88402178  0.78680094  0.58449783    -0.73600
O310        O  0.82607236  0.80437212  0.50188370    -0.74200
O311        O  0.78293327  0.69959787  0.51923264    -0.73600
O312        O  0.74942561  0.74708865  0.59043820    -0.74300
O313        O  0.80915941  0.73696824  0.47879148    -0.73700
O314        O  0.74808017  0.70535660  0.59123835    -0.74200
O315        O  0.80209209  0.69463130  0.61023380    -0.74100
O316        O  0.84218059  0.73052975  0.63597932    -0.73900
C317        C  0.82308145  0.79588039  0.67046220     0.77900
C318        C  0.81497773  0.81731263  0.51990261     0.78400
C319        C  0.89008552  0.78873337  0.54673697     0.77400
C320        C  0.79167646  0.71015083  0.48407878     0.77700
C321        C  0.73534479  0.71974053  0.59324218     0.78900
C322        C  0.82451650  0.70368070  0.63198753     0.77900
Zn323      Zn  0.77995537  0.82239885  0.98850380     1.49700
Zn324      Zn  0.72607437  0.78198105  0.93197075     1.49400
Zn325      Zn  0.77627541  0.83999426  0.89549037     1.49100
Zn326      Zn  0.78508344  0.78714306  0.91519365     1.49500
O327        O  0.76704804  0.80829148  0.93307742    -1.83300
O328        O  0.74687992  0.80215991  0.02955043    -0.74000
O329        O  0.70469842  0.79651871  0.89905090    -0.73800
O330        O  0.79809503  0.87818861  0.92465062    -0.73300
O331        O  0.71053884  0.77718356  0.98735158    -0.74000
O332        O  0.79241868  0.86431309  0.98936743    -0.73600
O333        O  0.73988521  0.83880102  0.87762351    -0.74200
O334        O  0.79930415  0.79814312  0.85806266    -0.73600
O335        O  0.71598603  0.74224415  0.91583559    -0.74300
O336        O  0.79615349  0.83692820  0.84435648    -0.73700
O337        O  0.75781817  0.74396914  0.91697618    -0.74200
O338        O  0.81911068  0.79755056  0.94992375    -0.74100
O339        O  0.81569812  0.82015606  0.00386500    -0.73900
C340        C  0.72009839  0.78535555  0.02296887     0.77900
C341        C  0.71326440  0.82046187  0.88114182     0.78400
C342        C  0.79988650  0.88388337  0.96248507     0.77400
C343        C  0.80285685  0.81822595  0.83395943     0.77700
C344        C  0.73050506  0.72961834  0.91477209     0.78900
C345        C  0.82909932  0.81056451  0.98336056     0.77900
Zn346      Zn  0.60403412  0.75656548  0.21608461     1.49700
Zn347      Zn  0.54531149  0.70470554  0.25228842     1.49400
Zn348      Zn  0.58753092  0.69389738  0.19552589     1.49100
Zn349      Zn  0.60707136  0.71767538  0.28392254     1.49500
O350        O  0.58536753  0.71781562  0.23734828    -1.83300
O351        O  0.57513362  0.76758784  0.20313303    -0.74000
O352        O  0.51864105  0.67052126  0.21708760    -0.73800
O353        O  0.61446262  0.71752405  0.15022870    -0.73300
O354        O  0.53632883  0.73644797  0.23831396    -0.74000
O355        O  0.62940638  0.76243184  0.16836620    -0.73600
O356        O  0.54815778  0.66624993  0.17463511    -0.74200
O357        O  0.62786247  0.69627218  0.27235160    -0.73600
O358        O  0.53793777  0.69301973  0.31319740    -0.74300
O359        O  0.60557562  0.67177718  0.21684967    -0.73700
O360        O  0.58061135  0.69947199  0.33077854    -0.74200
O361        O  0.63507103  0.75763659  0.30285951    -0.74100
O362        O  0.62916297  0.78459908  0.25733725    -0.73900
C363        C  0.55006437  0.75911045  0.21657601     0.77900
C364        C  0.52284313  0.65842954  0.18680616     0.78400
C365        C  0.63084296  0.74449187  0.14503854     0.77400
C366        C  0.62352169  0.67756943  0.24550323     0.77700
C367        C  0.55485544  0.69208464  0.33968320     0.78900
C368        C  0.64043485  0.78210621  0.28975632     0.77900
Zn369      Zn  0.55883577  0.64134421  0.64473522     1.49700
Zn370      Zn  0.50540765  0.62858317  0.58648631     1.49400
Zn371      Zn  0.55536808  0.61743598  0.55693478     1.49100
Zn372      Zn  0.51291157  0.57860111  0.62384514     1.49500
O373        O  0.53303066  0.61703271  0.60256509    -1.83300
O374        O  0.54544148  0.66737708  0.66655006    -0.74000
O375        O  0.51003376  0.64003695  0.52569230    -0.73800
O376        O  0.59760394  0.63952237  0.57024961    -0.73300
O377        O  0.51314634  0.66322237  0.62064663    -0.74000
O378        O  0.59861919  0.66623330  0.62226616    -0.73600
O379        O  0.54879177  0.63734914  0.51035988    -0.74200
O380        O  0.50826344  0.55045143  0.58162847    -0.73600
O381        O  0.46467916  0.59662075  0.60100638    -0.74300
O382        O  0.54283598  0.57714550  0.53806508    -0.73700
O383        O  0.47379003  0.56855153  0.64094401    -0.74200
O384        O  0.53418846  0.57298202  0.66935363    -0.74100
O385        O  0.56418061  0.61765392  0.68872018    -0.73900
C386        C  0.52841788  0.67512601  0.65213109     0.77900
C387        C  0.52991406  0.64391330  0.50096338     0.78400
C388        C  0.61135666  0.66006401  0.59516282     0.77400
C389        C  0.52262987  0.55270676  0.55003702     0.77700
C390        C  0.45656308  0.57576895  0.62610453     0.78900
C391        C  0.55410506  0.59062076  0.69253076     0.77900
Zn392      Zn  0.61154012  0.55180873  0.90629091     1.49700
Zn393      Zn  0.62491707  0.51228834  0.84889759     1.49400
Zn394      Zn  0.66641823  0.54758137  0.92093852     1.49100
Zn395      Zn  0.60570173  0.49403394  0.94136892     1.49500
O396        O  0.62687492  0.52614976  0.90400627    -1.83300
O397        O  0.60049582  0.55732082  0.85091676    -0.74000
O398        O  0.66305662  0.51562560  0.83264384    -0.73800
O399        O  0.68195582  0.59038908  0.91615693    -0.73300
O400        O  0.61216514  0.53290182  0.80851361    -0.74000
O401        O  0.64181711  0.59185992  0.92215992    -0.73600
O402        O  0.68993679  0.53682529  0.88693224    -0.74200
O403        O  0.62901371  0.49794731  0.99180802    -0.73600
O404        O  0.59542476  0.47017218  0.84869987    -0.74300
O405        O  0.66991032  0.53869318  0.97907487    -0.73700
O406        O  0.58903809  0.45565264  0.91303880    -0.74200
O407        O  0.57116817  0.49467525  0.96181722    -0.74100
O408        O  0.57581277  0.53598557  0.94092481    -0.73900
C409        C  0.60252063  0.54983883  0.81517096     0.77900
C410        C  0.68637455  0.52476622  0.85259742     0.78400
C411        C  0.66910267  0.60462299  0.91984138     0.77400
C412        C  0.65356268  0.51830186  0.00290029     0.77700
C413        C  0.58401717  0.45022355  0.87532404     0.78900
C414        C  0.56200916  0.51222958  0.96011667     0.77900
Zn415      Zn  0.50492236  0.42676125  0.38020464     1.49700
Zn416      Zn  0.51383789  0.37592324  0.41143519     1.49400
Zn417      Zn  0.46473502  0.38658028  0.44983728     1.49100
Zn418      Zn  0.45783812  0.36384761  0.35941916     1.49500
O419        O  0.48532712  0.38781727  0.40064949    -1.83300
O420        O  0.54519552  0.43948037  0.36517566    -0.74000
O421        O  0.51164986  0.36327816  0.47077314    -0.73800
O422        O  0.47546524  0.42667050  0.46818905    -0.73300
O423        O  0.55440387  0.40803786  0.39587881    -0.74000
O424        O  0.50754248  0.45408592  0.42221843    -0.73600
O425        O  0.47663451  0.36961346  0.49465567    -0.74200
O426        O  0.41781947  0.34318419  0.38179965    -0.73600
O427        O  0.50489899  0.34153163  0.37678411    -0.74300
O428        O  0.42143240  0.36195769  0.44282279    -0.73700
O429        O  0.46734425  0.33433675  0.33997086    -0.74200
O430        O  0.45487628  0.38713684  0.31311008    -0.74100
O431        O  0.48426313  0.43174491  0.33323634    -0.73900
C432        C  0.56252154  0.43116192  0.37561698     0.77900
C433        C  0.49509756  0.36176785  0.49945769     0.78400
C434        C  0.49392132  0.45145831  0.45469993     0.77400
C435        C  0.40626373  0.34543071  0.41408870     0.77700
C436        C  0.48590201  0.32738684  0.35001665     0.78900
C437        C  0.46526790  0.41414777  0.30890448     0.77900
Zn438      Zn  0.37976641  0.50461398  0.08378093     1.49700
Zn439      Zn  0.39152453  0.45667445  0.04485866     1.49400
Zn440      Zn  0.43117558  0.49552786  0.11484996     1.49100
Zn441      Zn  0.36752952  0.44859069  0.13535096     1.49500
O442        O  0.39222888  0.47651649  0.09450770    -1.83300
O443        O  0.36699521  0.50234098  0.02446628    -0.74000
O444        O  0.43159390  0.46982061  0.02328296    -0.73800
O445        O  0.44438567  0.53634634  0.12612911    -0.73300
O446        O  0.37098949  0.46552927  0.00201358    -0.74000
O447        O  0.41161172  0.54523780  0.09938731    -0.73600
O448        O  0.45884130  0.49621212  0.07447552    -0.74200
O449        O  0.39044439  0.44402015  0.18055869    -0.73600
O450        O  0.36932916  0.41346292  0.05322618    -0.74300
O451        O  0.43528346  0.47618518  0.16417136    -0.73700
O452        O  0.34670857  0.40927075  0.11115272    -0.74200
O453        O  0.33807016  0.45797754  0.15702673    -0.74100
O454        O  0.34478850  0.49477350  0.11822082    -0.73900
C455        C  0.36335411  0.48413992  0.99702990     0.77900
C456        C  0.45613681  0.48552845  0.03943450     0.78400
C457        C  0.43560455  0.55357309  0.11713713     0.77400
C458        C  0.41735132  0.45574854  0.18659577     0.77700
C459        C  0.35107150  0.39796765  0.08019816     0.78900
C460        C  0.33098644  0.47629048  0.14597310     0.77900
Zn461      Zn  0.22432474  0.26808306  0.38482025     1.49700
Zn462      Zn  0.22897447  0.24704937  0.47299924     1.49400
Zn463      Zn  0.18207963  0.26269010  0.45408347     1.49100
Zn464      Zn  0.17384711  0.20576479  0.41486988     1.49500
O465        O  0.20241539  0.24539076  0.43125935    -1.83300
O466        O  0.26721083  0.28807177  0.39563462    -0.74000
O467        O  0.23233639  0.27270140  0.52029695    -0.73800
O468        O  0.17913743  0.28866050  0.41426901    -0.73300
O469        O  0.26945747  0.26622239  0.45163945    -0.74000
O470        O  0.21229328  0.29687078  0.36808381    -0.73600
O471        O  0.20177831  0.28675248  0.50242042    -0.74200
O472        O  0.13241482  0.19596268  0.42919882    -0.73600
O473        O  0.21719834  0.20676267  0.49096975    -0.74300
O474        O  0.14232742  0.23323889  0.46884752    -0.73700
O475        O  0.18191147  0.17876935  0.44832962    -0.74200
O476        O  0.17889189  0.19875911  0.35434843    -0.74100
O477        O  0.21662597  0.24125608  0.33819695    -0.73900
C478        C  0.28173339  0.28346487  0.42211291     0.77900
C479        C  0.22113030  0.28830722  0.52601953     0.78400
C480        C  0.19303217  0.30141077  0.38246186     0.77400
C481        C  0.12460864  0.20873716  0.45431851     0.77700
C482        C  0.19894586  0.18193653  0.47745208     0.78900
C483        C  0.19849700  0.21521601  0.32931483     0.77900
Zn484      Zn  0.25323085  0.40634654  0.71620394     1.49700
Zn485      Zn  0.29123565  0.40329134  0.78472401     1.49400
Zn486      Zn  0.31579632  0.42389990  0.69593219     1.49100
Zn487      Zn  0.30236645  0.46467035  0.75148813     1.49500
O488        O  0.29129678  0.42507056  0.73775325    -1.83300
O489        O  0.22472545  0.38274814  0.75835965    -0.74000
O490        O  0.31548480  0.38476314  0.77381426    -0.73800
O491        O  0.29297993  0.39527592  0.65177694    -0.73300
O492        O  0.25051671  0.37456030  0.80295637    -0.74000
O493        O  0.24824344  0.37958312  0.67114809    -0.73600
O494        O  0.33963688  0.40831967  0.71862070    -0.74200
O495        O  0.33622408  0.49195133  0.71676844    -0.73600
O496        O  0.30864069  0.43038884  0.83140265    -0.74300
O497        O  0.34208289  0.46359665  0.67372543    -0.73700
O498        O  0.31469270  0.47265004  0.81090166    -0.74200
O499        O  0.27005989  0.47288793  0.73764831    -0.74100
O500        O  0.24345886  0.43532823  0.69768942    -0.73900
C501        C  0.22638069  0.37067172  0.79057282     0.77900
C502        C  0.33513030  0.39080013  0.74754199     0.78400
C503        C  0.26613488  0.37788577  0.64807684     0.77400
C504        C  0.34882582  0.48856478  0.68644311     0.77700
C505        C  0.31632093  0.45657356  0.83813921     0.78900
C506        C  0.24987381  0.45978166  0.71186043     0.77900
Zn507      Zn  0.27496575  0.21740067  0.11000938     1.49700
Zn508      Zn  0.25349291  0.22040953  0.02128756     1.49400
Zn509      Zn  0.27033876  0.17549302  0.04263997     1.49100
Zn510      Zn  0.21290718  0.16665201  0.08203176     1.49500
O511        O  0.25224307  0.19515509  0.06457816    -1.83300
O512        O  0.29298650  0.25989052  0.09897029    -0.74000
O513        O  0.27940540  0.22367014  0.97437491    -0.73800
O514        O  0.29439716  0.17082625  0.08367074    -0.73300
O515        O  0.27203045  0.26112292  0.04124815    -0.74000
O516        O  0.30412059  0.20606251  0.12658082    -0.73600
O517        O  0.29666095  0.19653611  0.99632122    -0.74200
O518        O  0.20415127  0.12556673  0.06776541    -0.73600
O519        O  0.21319063  0.20702728  0.00267417    -0.74300
O520        O  0.24065548  0.13647724  0.02586714    -0.73700
O521        O  0.18533662  0.17301994  0.04714819    -0.74200
O522        O  0.20651569  0.17169663  0.14351229    -0.74100
O523        O  0.24957029  0.20870071  0.15781035    -0.73900
C524        C  0.28846460  0.27374624  0.07128274     0.77900
C525        C  0.29697584  0.21457480  0.97107049     0.78400
C526        C  0.30769750  0.18563876  0.11450269     0.77400
C527        C  0.21649000  0.11837055  0.04103417     0.77700
C528        C  0.18839188  0.18872456  0.01618421     0.78900
C529        C  0.22413136  0.19046542  0.16865213     0.77900
Zn530      Zn  0.45010788  0.32522734  0.74016484     1.49700
Zn531      Zn  0.44379886  0.26525415  0.71740595     1.49400
Zn532      Zn  0.44370954  0.28255105  0.81144154     1.49100
Zn533      Zn  0.39107069  0.26932622  0.75358922     1.49500
O534        O  0.43230428  0.28530077  0.75579986    -1.83300
O535        O  0.46594667  0.33084513  0.68394329    -0.74000
O536        O  0.46137821  0.24479630  0.74769461    -0.73800
O537        O  0.47801331  0.32073955  0.82962888    -0.73300
O538        O  0.46832970  0.29173260  0.67067120    -0.74000
O539        O  0.48321111  0.34865903  0.77669285    -0.73600
O540        O  0.45655242  0.25332049  0.81249517    -0.74200
O541        O  0.37332435  0.25346075  0.80730053    -0.73600
O542        O  0.40859563  0.23315356  0.69109497    -0.74300
O543        O  0.40969506  0.26865598  0.85055062    -0.73700
O544        O  0.37227284  0.23758267  0.71296240    -0.74200
O545        O  0.38046287  0.29949434  0.74397052    -0.74100
O546        O  0.42237671  0.34016084  0.74305836    -0.73900
C547        C  0.47320295  0.31679730  0.66071041     0.77900
C548        C  0.46305039  0.24066178  0.78556433     0.78400
C549        C  0.49176685  0.34471134  0.81082413     0.77400
C550        C  0.38277510  0.25630293  0.84334991     0.77700
C551        C  0.38195316  0.22479391  0.69147600     0.78900
C552        C  0.39503340  0.32681518  0.74364493     0.77900
Zn553      Zn  0.50107739  0.86501085  0.09213526     1.49700
Zn554      Zn  0.55072721  0.92489439  0.05273012     1.49400
Zn555      Zn  0.51078553  0.92559958  0.12212752     1.49100
Zn556      Zn  0.55666853  0.90945741  0.14458936     1.49500
O557        O  0.52979513  0.90581279  0.10237892    -1.83300
O558        O  0.50382025  0.85412164  0.03314186    -0.74000
O559        O  0.54113868  0.95493501  0.03261654    -0.73800
O560        O  0.46995161  0.89821989  0.13431015    -0.73300
O561        O  0.53863106  0.89586745  0.00847506    -0.74000
O562        O  0.46047741  0.85696881  0.10549549    -0.73600
O563        O  0.51059583  0.95150300  0.07993375    -0.74200
O564        O  0.56029333  0.93643985  0.18938669    -0.73600
O565        O  0.59372811  0.94256795  0.06065388    -0.74300
O566        O  0.52982544  0.95038363  0.17068091    -0.73700
O567        O  0.59662340  0.92802349  0.12293230    -0.74200
O568        O  0.54579455  0.87066406  0.16696570    -0.74100
O569        O  0.50879456  0.83960643  0.12958737    -0.73900
C570        C  0.52025333  0.86931089  0.00416054     0.77900
C571        C  0.52359649  0.96198169  0.04670511     0.78400
C572        C  0.45243701  0.87242319  0.12417311     0.77400
C573        C  0.54926877  0.95222773  0.19439942     0.77700
C574        C  0.60835107  0.94128607  0.09021422     0.78900
C575        C  0.52693950  0.84492713  0.15795432     0.77900
Zn576      Zn  0.62580766  0.07013723  0.45873483     1.49700
Zn577      Zn  0.63323108  0.12826349  0.41894639     1.49400
Zn578      Zn  0.64686216  0.08567200  0.36639188     1.49100
Zn579      Zn  0.58422036  0.06699070  0.38911566     1.49500
O580        O  0.62304211  0.08821239  0.40862248    -1.83300
O581        O  0.64270332  0.09941114  0.50241876    -0.74000
O582        O  0.66837515  0.15421211  0.38622290    -0.73800
O583        O  0.66822063  0.06726579  0.38893964    -0.73300
O584        O  0.64394249  0.13885128  0.47877911    -0.74000
O585        O  0.65137689  0.05306329  0.45152193    -0.73600
O586        O  0.67563551  0.12530355  0.34594583    -0.74200
O587        O  0.57913036  0.04196633  0.34157459    -0.73600
O588        O  0.60106904  0.13578004  0.40075460    -0.74300
O589        O  0.62370207  0.05881251  0.32058078    -0.73700
O590        O  0.56977123  0.09308993  0.37499701    -0.74200
O591        O  0.55852689  0.04215197  0.43235691    -0.74100
O592        O  0.58651126  0.04069572  0.48036278    -0.73900
C593        C  0.64759675  0.12488390  0.50731033     0.77900
C594        C  0.68242223  0.15032949  0.35844778     0.78400
C595        C  0.66716359  0.05442548  0.42192492     0.63000
C596        C  0.59684899  0.04153955  0.31672935     0.77700
C597        C  0.57738544  0.11905013  0.38285568     0.78900
C598        C  0.56164527  0.03328126  0.46664528     0.77900
Zn599      Zn  0.83149435  0.08757726  0.05036056     1.49700
Zn600      Zn  0.78977053  0.04835776  0.11947999     1.49400
Zn601      Zn  0.78489411  0.02527271  0.02974920     1.49100
Zn602      Zn  0.83959090  0.03804692  0.08716194     1.49500
O603        O  0.81128594  0.04918719  0.07212644    -1.83300
O604        O  0.83537857  0.11543383  0.09216270    -0.74000
O605        O  0.74707863  0.02565522  0.10831797    -0.73800
O606        O  0.78134251  0.04885656  0.98402339    -0.73300
O607        O  0.80237958  0.08893714  0.13790374    -0.74000
O608        O  0.81086851  0.09338261  0.00414286    -0.73600
O609        O  0.74457561  0.00281664  0.05132445    -0.74200
O610        O  0.83146710  0.00380894  0.05239966    -0.73600
O611        O  0.79726081  0.02815010  0.16534640    -0.74300
O612        O  0.79673045  0.99758648  0.00958640    -0.73700
O613        O  0.83548428  0.02531102  0.14744234    -0.74200
O614        O  0.88051362  0.07008595  0.07240023    -0.74100
O615        O  0.87092116  0.09813149  0.03337614    -0.73900
C616        C  0.82172422  0.11338434  0.12442715     0.77900
C617        C  0.73236547  0.00713337  0.08124113     0.78400
C618        C  0.79161465  0.07588474  0.98007884     0.77400
C619        C  0.81478949  0.99075122  0.02259144     0.77700
C620        C  0.81604128  0.02111976  0.17316780     0.78900
C621        C  0.88840136  0.09098566  0.04743331     0.77900
Zn622      Zn  0.74340559  0.17205229  0.72601586     1.49700
Zn623      Zn  0.73689458  0.11412182  0.76205799     1.49400
Zn624      Zn  0.72414177  0.15456143  0.81939688     1.49100
Zn625      Zn  0.68235412  0.11892216  0.74778030     1.49500
O626        O  0.72205760  0.14030067  0.76406205    -1.83300
O627        O  0.77647868  0.16946296  0.70253420    -0.74000
O628        O  0.74942129  0.11001507  0.81735917    -0.73800
O629        O  0.75403393  0.19655062  0.82044348    -0.73300
O630        O  0.77079981  0.12791436  0.72397201    -0.74000
O631        O  0.76240301  0.21021604  0.75565957    -0.73600
O632        O  0.73640039  0.13355890  0.85947877    -0.74200
O633        O  0.65922969  0.12924379  0.78307029    -0.73600
O634        O  0.70591434  0.07359479  0.74985829    -0.74300
O635        O  0.68637479  0.15190327  0.83625083    -0.73700
O636        O  0.66613087  0.07592809  0.75202928    -0.74200
O637        O  0.67784958  0.12938843  0.69098154    -0.74100
O638        O  0.71836150  0.17011914  0.67789064    -0.73900
C639        C  0.78467311  0.15108380  0.70343301     0.77900
C640        C  0.74671397  0.11717037  0.85304657     0.78400
C641        C  0.76658434  0.21598941  0.79344134     0.77400
C642        C  0.66271435  0.14178894  0.81696392     0.77700
C643        C  0.67864068  0.06125449  0.75102878     0.78900
C644        C  0.69316186  0.15052597  0.66748592     0.77900
Zn645      Zn  0.74329986  0.90889870  0.45952129     1.49700
Zn646      Zn  0.76059930  0.97130647  0.48143555     1.49400
Zn647      Zn  0.80168495  0.95966422  0.42140009     1.49100
Zn648      Zn  0.74050777  0.94796212  0.39136360     1.49500
O649        O  0.76206396  0.94750152  0.43805865    -1.83300
O650        O  0.71837519  0.90342637  0.50780597    -0.74000
O651        O  0.80075904  0.00004547  0.49938698    -0.73800
O652        O  0.81107882  0.92813862  0.43646430    -0.73300
O653        O  0.73550590  0.94805033  0.52909259    -0.74000
O654        O  0.77277279  0.89870692  0.47374845    -0.73600
O655        O  0.82865775  0.99480364  0.45467378    -0.74200
O656        O  0.76612175  0.96470555  0.34312886    -0.73600
O657        O  0.74111617  0.99252392  0.46143601    -0.74300
O658        O  0.80864621  0.97071521  0.36014562    -0.73700
O659        O  0.72227591  0.97174947  0.40254755    -0.74200
O660        O  0.71118219  0.90794157  0.37377237    -0.74100
O661        O  0.71780237  0.88077456  0.41825748    -0.73900
C662        C  0.71821109  0.92110527  0.53302925     0.77900
C663        C  0.82550490  0.00764279  0.48499476     0.78400
C664        C  0.79779952  0.90665631  0.46046445     0.77400
C665        C  0.79171106  0.97177156  0.33382547     0.77700
C666        C  0.72523991  0.98907378  0.43082849     0.78900
C667        C  0.70606169  0.88341602  0.38636844     0.77900
Zn668      Zn  0.57120608  0.84539591  0.69013588     1.49700
Zn669      Zn  0.56885013  0.82561862  0.78355186     1.49400
Zn670      Zn  0.62170842  0.88445089  0.75141540     1.49100
Zn671      Zn  0.56123354  0.87872296  0.76124736     1.49500
O672        O  0.58067657  0.85823912  0.74643989    -1.83300
O673        O  0.55692106  0.80302392  0.68851215    -0.74000
O674        O  0.60403592  0.82655427  0.80636272    -0.73800
O675        O  0.64122581  0.88985505  0.69806258    -0.73300
O676        O  0.54787865  0.78791299  0.75264548    -0.74000
O677        O  0.60648385  0.86586514  0.65331553    -0.73600
O678        O  0.64039256  0.86955923  0.78956758    -0.74200
O679        O  0.58860171  0.92210745  0.76026380    -0.73600
O680        O  0.54641713  0.82780909  0.83228119    -0.74300
O681        O  0.63050976  0.92412471  0.76576378    -0.73700
O682        O  0.54520533  0.86745014  0.81760120    -0.74200
O683        O  0.52824828  0.86789003  0.72304940    -0.74100
O684        O  0.53785641  0.84951543  0.66913410    -0.73900
C685        C  0.54726587  0.78280767  0.71472672     0.77900
C686        C  0.63069958  0.84522744  0.80695907     0.78400
C687        C  0.63302932  0.88233338  0.66175160     0.77400
C688        C  0.61582284  0.93659869  0.76451655     0.77700
C689        C  0.54004197  0.84688264  0.84182533     0.78900
C690        C  0.52202377  0.85711355  0.68756640     0.77900
Zn691      Zn  0.22798576  0.93671004  0.92945413     1.49700
Zn692      Zn  0.22463872  0.99285170  0.91163046     1.49400
Zn693      Zn  0.17261715  0.93258383  0.88919558     1.49100
Zn694      Zn  0.18787615  0.95068685  0.98327362     1.49500
O695        O  0.20311501  0.95303507  0.92868303    -1.83300
O696        O  0.26886679  0.96745353  0.92026591    -0.74000
O697        O  0.21688002  0.99785566  0.85297844    -0.73800
O698        O  0.17416593  0.89888501  0.86751925    -0.73300
O699        O  0.26687159  0.00767826  0.91771660    -0.74000
O700        O  0.21463311  0.90305359  0.89145612    -0.73600
O701        O  0.17725818  0.95643831  0.83948315    -0.74200
O702        O  0.14545960  0.92310322  0.98073796    -0.73600
O703        O  0.21418760  0.01646739  0.94643313    -0.74300
O704        O  0.13386896  0.91619043  0.91521887    -0.73700
O705        O  0.19266587  0.98931871  0.00049246    -0.74200
O706        O  0.20526636  0.93504627  0.02500448    -0.74100
O707        O  0.22894312  0.92176630  0.98426151    -0.73900
C708        C  0.28118669  0.99480464  0.91942517     0.77900
C709        C  0.19703041  0.98137273  0.82861721     0.78400
C710        C  0.19191600  0.89004654  0.87012965     0.77400
C711        C  0.12680630  0.91199667  0.95253242     0.77700
C712        C  0.20243698  0.01300711  0.98106330     0.78900
C713        C  0.22048212  0.92329665  0.01956487     0.77900
Zn714      Zn  0.32975395  0.88221357  0.25580049     1.49700
Zn715      Zn  0.27367542  0.88526506  0.24150719     1.49400
Zn716      Zn  0.28659827  0.84547146  0.18617856     1.49100
Zn717      Zn  0.27085938  0.82862637  0.28065612     1.49500
O718        O  0.28991370  0.86017201  0.24096083    -1.83300
O719        O  0.34432303  0.92481969  0.25081870    -0.74000
O720        O  0.25871274  0.88773883  0.18708690    -0.73800
O721        O  0.32450564  0.84974808  0.16739568    -0.73300
O722        O  0.30399418  0.92643325  0.25298048    -0.74000
O723        O  0.35289183  0.87124226  0.22044535    -0.73600
O724        O  0.27174070  0.86412301  0.14575055    -0.74200
O725        O  0.25381215  0.78949538  0.25301375    -0.73600
O726        O  0.23954651  0.86951113  0.27843397    -0.74300
O727        O  0.25821851  0.80312280  0.18831282    -0.73700
O728        O  0.23662396  0.82925206  0.30191755    -0.74200
O729        O  0.29580856  0.83385728  0.33097504    -0.74100
O730        O  0.33500356  0.87442622  0.31374249    -0.73900
C731        C  0.33131920  0.93903987  0.25213353     0.77900
C732        C  0.26033351  0.87959726  0.15161315     0.78400
C733        C  0.34835157  0.85910758  0.18595607     0.77400
C734        C  0.24820856  0.78347044  0.21542802     0.77700
C735        C  0.22683992  0.84626681  0.29893116     0.78900
C736        C  0.32062736  0.85487614  0.33988077     0.77900
Zn737      Zn  0.42945757  0.92668700  0.63074996     1.49700
Zn738      Zn  0.36643087  0.91062439  0.64747721     1.49400
Zn739      Zn  0.39279275  0.93224198  0.56127446     1.49100
Zn740      Zn  0.37954288  0.86957115  0.59022405     1.49500
O741        O  0.39162317  0.90920229  0.60704462    -1.83300
O742        O  0.43331378  0.94928533  0.68060430    -0.74000
O743        O  0.34403050  0.92826749  0.62492452    -0.73800
O744        O  0.43354408  0.96002954  0.54492190    -0.73300
O745        O  0.38836402  0.93648899  0.69469089    -0.74000
O746        O  0.45904499  0.95373844  0.59219383    -0.73600
O747        O  0.37077614  0.95279057  0.57207905    -0.74200
O748        O  0.36665632  0.86316621  0.52996665    -0.73600
O749        O  0.33942825  0.87069651  0.66671370    -0.74300
O750        O  0.37488033  0.90677482  0.51334356    -0.73700
O751        O  0.34582324  0.84179533  0.62561529    -0.74200
O752        O  0.41228204  0.86109795  0.60110620    -0.74100
O753        O  0.44016436  0.89736281  0.64245459    -0.73900
C754        C  0.41507813  0.95114357  0.70265956     0.77900
C755        C  0.35043441  0.94688813  0.59688437     0.78400
C756        C  0.45763918  0.96544836  0.55943883     0.77400
C757        C  0.36626087  0.88074618  0.50405221     0.77700
C758        C  0.33281315  0.84551975  0.65515192     0.78900
C759        C  0.43350922  0.87365044  0.62556229     0.77900
Zn760      Zn  0.50191092  0.07368465  0.88827870     1.49700
Zn761      Zn  0.46317236  0.07279114  0.95834564     1.49400
Zn762      Zn  0.51068368  0.13361611  0.91870658     1.49100
Zn763      Zn  0.45506687  0.08879427  0.86780693     1.49500
O764        O  0.48272587  0.09277637  0.90892742    -1.83300
O765        O  0.50736164  0.05039656  0.93050727    -0.74000
O766        O  0.47509805  0.10160479  0.00313932    -0.73800
O767        O  0.55116202  0.14310092  0.90095880    -0.73300
O768        O  0.47517923  0.04429548  0.97664103    -0.74000
O769        O  0.54027922  0.10256055  0.86860841    -0.73600
O770        O  0.50918594  0.14376679  0.97843589    -0.74200
O771        O  0.46496489  0.12718671  0.84374382    -0.73600
O772        O  0.41986011  0.05335915  0.95123452    -0.74300
O773        O  0.50024379  0.15819647  0.88355699    -0.73700
O774        O  0.41651798  0.07232616  0.89285700    -0.74200
O775        O  0.44885038  0.05925772  0.82491259    -0.74100
O776        O  0.47983585  0.04606838  0.84397317    -0.73900
C777        C  0.49411588  0.03896876  0.96329466     0.77900
C778        C  0.49331490  0.12823758  0.00764980     0.78400
C779        C  0.55805140  0.12849857  0.87796652     0.77400
C780        C  0.48240960  0.15295453  0.85476073     0.77700
C781        C  0.40494757  0.05688904  0.92413851     0.78900
C782        C  0.45931862  0.04283672  0.82136832     0.77900
Zn783      Zn  0.23417165  0.00986853  0.58211749     1.49700
Zn784      Zn  0.29169922  0.06598125  0.56614257     1.49400
Zn785      Zn  0.23733002  0.05002685  0.50885824     1.49100
Zn786      Zn  0.23916333  0.06983281  0.60110777     1.49500
O787        O  0.25046322  0.04909740  0.56420094    -1.83300
O788        O  0.26322967  0.99658747  0.58244853    -0.74000
O789        O  0.30689433  0.07667936  0.51071487    -0.73800
O790        O  0.20258039  0.01111442  0.49385240    -0.73300
O791        O  0.30411561  0.03820129  0.58422474    -0.74000
O792        O  0.20085711  0.98460794  0.54672572    -0.73600
O793        O  0.27035640  0.06307201  0.46821037    -0.74200
O794        O  0.21676940  0.08522176  0.57158084    -0.73600
O795        O  0.31106373  0.10239882  0.59840914    -0.74300
O796        O  0.22396605  0.07886625  0.50695370    -0.73700
O797        O  0.27419762  0.10564844  0.62060477    -0.74200
O798        O  0.21938706  0.04611213  0.65159766    -0.74100
O799        O  0.21975567  0.00588668  0.63901387    -0.73900
C800        C  0.29049471  0.01085135  0.58568298     0.77900
C801        C  0.29721808  0.07414584  0.47489987     0.78400
C802        C  0.19036424  0.98740217  0.51353326     0.77400
C803        C  0.21551331  0.08987817  0.53382015     0.77700
C804        C  0.30110548  0.11596749  0.61738936     0.78900
C805        C  0.21473316  0.02139646  0.66278100     0.77900
Zn806      Zn  0.41215361  0.16138037  0.28066047     1.49700
Zn807      Zn  0.47319271  0.17173125  0.25237132     1.49400
Zn808      Zn  0.42875041  0.11563478  0.30272330     1.49100
Zn809      Zn  0.41296499  0.12204174  0.21204468     1.49500
O810        O  0.43236140  0.14286817  0.26133887    -1.83300
O811        O  0.43928711  0.20183928  0.29511188    -0.74000
O812        O  0.49887899  0.16222814  0.28724272    -0.73800
O813        O  0.40251732  0.11253512  0.34817775    -0.73300
O814        O  0.48127923  0.21199723  0.26836546    -0.74000
O815        O  0.38560971  0.14015531  0.32648641    -0.73600
O816        O  0.46715026  0.12484581  0.32337551    -0.74200
O817        O  0.39254218  0.07856411  0.22087432    -0.73600
O818        O  0.48324024  0.17043559  0.19273116    -0.74300
O819        O  0.40976322  0.07568536  0.28084276    -0.73700
O820        O  0.44272157  0.13321781  0.16883669    -0.74200
O821        O  0.38504078  0.13374603  0.19041006    -0.74100
O822        O  0.38812801  0.16400645  0.23790565    -0.73900
C823        C  0.46525463  0.21968190  0.28617535     0.77900
C824        C  0.49306250  0.14288952  0.31410030     0.78400
C825        C  0.38505505  0.12175009  0.35124643     0.77400
C826        C  0.39465784  0.06371141  0.24954294     0.77700
C827        C  0.46883710  0.15286708  0.16438028     0.78900
C828        C  0.37852176  0.15179109  0.20407332     0.77900
C829        C  0.33502782  0.10444072  0.37385166    -0.11500
C830        C  0.36278438  0.10984464  0.38298233     0.05500
C831        C  0.36821272  0.10206756  0.42132747    -0.06800
C832        C  0.34625665  0.08969444  0.44999683    -0.07500
C833        C  0.31854098  0.08479406  0.44148038    -0.02100
C834        C  0.31287601  0.09179144  0.40255085     0.04700
N835        N  0.28499280  0.08655297  0.39175709     0.67300
H836        H  0.33039265  0.10969930  0.34407453     0.16200
H837        H  0.35123565  0.08438757  0.47950041     0.15900
N838        N  0.39624979  0.10775933  0.43228584     0.75000
O839        O  0.27842696  0.10559988  0.39810099    -0.38500
O840        O  0.26845191  0.06466763  0.37107151    -0.38400
O841        O  0.41543471  0.13296583  0.44164278    -0.39100
O842        O  0.40082694  0.08717617  0.43731782    -0.39200
C843        C  0.48795726  0.16221017  0.05291536    -0.11500
C844        C  0.49516053  0.14070113  0.04817825     0.05500
C845        C  0.49783743  0.12688125  0.08298146    -0.06800
C846        C  0.49178716  0.13343957  0.12132127    -0.07500
C847        C  0.48266180  0.15334345  0.12582112    -0.02100
C848        C  0.48127573  0.16830197  0.09149137     0.04700
N849        N  0.47047041  0.18755072  0.09488732     0.67300
H850        H  0.48504594  0.17242890  0.02639209     0.16200
H851        H  0.49234833  0.12145869  0.14748848     0.15900
N852        N  0.50416678  0.10423612  0.07950604     0.75000
O853        O  0.48761376  0.21412440  0.09952434    -0.38500
O854        O  0.44410583  0.17841267  0.08942125    -0.38400
O855        O  0.52839932  0.10956322  0.06683600    -0.39100
O856        O  0.48674217  0.07961360  0.09340700    -0.39200
C857        C  0.34923052  0.99135562  0.58028031    -0.11500
C858        C  0.33460138  0.96270662  0.59385800     0.05500
C859        C  0.30571094  0.95037755  0.60623304    -0.06800
C860        C  0.29199888  0.96658700  0.60411854    -0.07500
C861        C  0.30655669  0.99523840  0.59027705    -0.02100
C862        C  0.33575816  0.00778032  0.57900350     0.04700
N863        N  0.35209440  0.03706903  0.56581003     0.67300
H864        H  0.37157852  0.00138064  0.57150183     0.16200
H865        H  0.26966264  0.95650678  0.61295033     0.15900
N866        N  0.28963940  0.92110531  0.61961420     0.75000
O867        O  0.36351989  0.05686334  0.59181513    -0.38500
O868        O  0.35950334  0.04265018  0.52911009    -0.38400
O869        O  0.27976287  0.91536155  0.65523245    -0.39100
O870        O  0.28271562  0.90095748  0.59462864    -0.39200
C871        C  0.40875788  0.98440861  0.74790768    -0.11500
C872        C  0.42538148  0.97228359  0.73630509     0.05500
C873        C  0.45291785  0.98309594  0.75367683    -0.06800
C874        C  0.46362531  0.00640506  0.78045843    -0.07500
C875        C  0.44727953  0.01898977  0.79140446    -0.02100
C876        C  0.41932095  0.00739167  0.77524950     0.04700
N877        N  0.40110010  0.01826495  0.78679538     0.67300
H878        H  0.38761173  0.97647342  0.73497981     0.16200
H879        H  0.48483772  0.01445977  0.79320329     0.15900
N880        N  0.47003795  0.97028325  0.74525409     0.75000
O881        O  0.39734774  0.03441403  0.76282150    -0.38500
O882        O  0.38579416  0.00861709  0.81822017    -0.38400
O883        O  0.49606420  0.98589942  0.73542907    -0.39100
O884        O  0.46014943  0.94384942  0.75220506    -0.39200
C885        C  0.33123053  0.84530954  0.45345405    -0.11500
C886        C  0.35616441  0.87173623  0.46169837     0.05500
C887        C  0.36996463  0.89107491  0.42929550    -0.06800
C888        C  0.35863306  0.88422312  0.39014736    -0.07500
C889        C  0.33311022  0.85837214  0.38161633    -0.02100
C890        C  0.31950118  0.83854265  0.41391079     0.04700
N891        N  0.29338598  0.81195825  0.40755416     0.67300
H892        H  0.32019019  0.83034063  0.47803631     0.16200
H893        H  0.36972059  0.89999490  0.36644546     0.15900
N894        N  0.39532818  0.91833412  0.43576893     0.75000
O895        O  0.29381776  0.79175781  0.38896102    -0.38500
O896        O  0.27068084  0.80732309  0.42506297    -0.38400
O897        O  0.41916431  0.91972585  0.44090977    -0.39100
O898        O  0.39442435  0.94118237  0.43180090    -0.39200
C899        C  0.39011578  0.01675482  0.26856328    -0.11500
C900        C  0.37892737  0.03181564  0.24774847     0.05500
C901        C  0.35214564  0.01603458  0.22807707    -0.06800
C902        C  0.33700333  0.98589969  0.23006500    -0.07500
C903        C  0.34811326  0.97090004  0.25113313    -0.02100
C904        C  0.37512764  0.98662940  0.27014316     0.04700
N905        N  0.38706118  0.97241169  0.29269396     0.67300
H906        H  0.41058283  0.02843955  0.28401637     0.16200
H907        H  0.31635564  0.97415707  0.21508732     0.15900
N908        N  0.33932836  0.03025225  0.20771759     0.75000
O909        O  0.40486406  0.96708123  0.27603403    -0.38500
O910        O  0.38311824  0.96907225  0.33050769    -0.38400
O911        O  0.33816980  0.03015146  0.16947939    -0.39100
O912        O  0.32631984  0.04001494  0.22790243    -0.39200
C913        C  0.19589269  0.98165991  0.71364572    -0.11500
C914        C  0.20504890  0.01064499  0.70486090     0.05500
C915        C  0.20878886  0.02926291  0.73744004    -0.06800
C916        C  0.20555162  0.01925426  0.77759432    -0.07500
C917        C  0.19790507  0.99071938  0.78612026    -0.02100
C918        C  0.19266256  0.97168275  0.75367098     0.04700
N919        N  0.18701527  0.94301783  0.76081760     0.67300
H920        H  0.19298803  0.96694219  0.68936430     0.16200
H921        H  0.20936810  0.03397321  0.80228767     0.15900
N922        N  0.21721554  0.05870975  0.73055709     0.75000
O923        O  0.16522769  0.92189587  0.74520875    -0.38500
O924        O  0.20586685  0.93916251  0.77760500    -0.38400
O925        O  0.19884998  0.06507888  0.71872692    -0.39100
O926        O  0.24155239  0.07836355  0.74226621    -0.39200
C927        C  0.35880624  0.05422925  0.90730538    -0.11500
C928        C  0.37332158  0.04215515  0.92731377     0.05500
C929        C  0.35717522  0.01509634  0.94635121    -0.06800
C930        C  0.32722758  0.00015601  0.94343666    -0.07500
C931        C  0.31280994  0.01175404  0.92208046    -0.02100
C932        C  0.32885691  0.03939073  0.90467561     0.04700
N933        N  0.31522694  0.05208044  0.88246471     0.67300
H934        H  0.37081111  0.07505147  0.89263772     0.16200
H935        H  0.31519927  0.97918981  0.95770772     0.15900
N936        N  0.37081219  0.00174529  0.96683687     0.75000
O937        O  0.31330643  0.07246304  0.89779534    -0.38500
O938        O  0.30826554  0.04531641  0.84586798    -0.38400
O939        O  0.37059437  0.00064554  0.00508720    -0.39100
O940        O  0.37929087  0.98751399  0.94686571    -0.39200
C941        C  0.24814357  0.90087366  0.04600506    -0.11500
C942        C  0.22938689  0.91133329  0.05405021     0.05500
C943        C  0.22002098  0.91000721  0.09438351    -0.06800
C944        C  0.22974850  0.89890953  0.12525228    -0.07500
C945        C  0.24894262  0.88901324  0.11717173    -0.02100
C946        C  0.25786513  0.88986256  0.07680596     0.04700
N947        N  0.27777237  0.88078736  0.06663509     0.67300
H948        H  0.25581158  0.90152165  0.01548504     0.16200
H949        H  0.22241077  0.89838156  0.15595488     0.15900
N950        N  0.20079774  0.91991648  0.10476338     0.75000
O951        O  0.26862699  0.85517402  0.05571048    -0.38500
O952        O  0.30407098  0.89920585  0.06292229    -0.38400
O953        O  0.17509540  0.90197164  0.11373042    -0.39100
O954        O  0.21050501  0.94634310  0.11110397    -0.39200
C955        C  0.49689162  0.86234062  0.62718224    -0.11500
C956        C  0.49586417  0.85385262  0.66780891     0.05500
C957        C  0.47100572  0.84615778  0.69097760    -0.06800
C958        C  0.44934353  0.85029736  0.67482563    -0.07500
C959        C  0.45161570  0.86134595  0.63566586    -0.02100
C960        C  0.47513374  0.86657535  0.61111335     0.04700
N961        N  0.47863992  0.87886229  0.57144746     0.67300
H962        H  0.51581575  0.86826600  0.60911915     0.16200
H963        H  0.43122770  0.84616549  0.69365459     0.15900
N964        N  0.46785257  0.83485258  0.73132194     0.75000
O965        O  0.48279872  0.90400450  0.56732181    -0.38500
O966        O  0.48138132  0.86620071  0.54118148    -0.38400
O967        O  0.45833180  0.84367234  0.75926301    -0.39100
O968        O  0.47177834  0.81400544  0.73815667    -0.39200
C969        C  0.64918317  0.87662908  0.59337122    -0.11500
C970        C  0.65503565  0.89271544  0.62905955     0.05500
C971        C  0.68233790  0.91784133  0.63347078    -0.06800
C972        C  0.70274429  0.92640170  0.60232862    -0.07500
C973        C  0.69682402  0.91031548  0.56657993    -0.02100
C974        C  0.66973210  0.88499381  0.56255139     0.04700
N975        N  0.66226886  0.86792020  0.52673191     0.67300
H976        H  0.62859702  0.85718071  0.58943753     0.16200
H977        H  0.72328683  0.94593422  0.60605388     0.15900
N978        N  0.68950019  0.93542556  0.66886607     0.75000
O979        O  0.66542668  0.84625917  0.52589597    -0.38500
O980        O  0.64789350  0.87132923  0.49929078    -0.38400
O981        O  0.70845844  0.93706936  0.69300814    -0.39100
O982        O  0.67921330  0.95167615  0.67365942    -0.39200
C983        C  0.61538778  0.13781038  0.80637764    -0.11500
C984        C  0.63821514  0.14412484  0.83303173     0.05500
C985        C  0.63620341  0.15133091  0.87368775    -0.06800
C986        C  0.61069309  0.14959372  0.88740113    -0.07500
C987        C  0.58717484  0.14068630  0.86121526    -0.02100
C988        C  0.59017120  0.13615440  0.81994237     0.04700
N989        N  0.56702224  0.12827757  0.79188970     0.67300
H990        H  0.61670371  0.13337187  0.77469325     0.16200
H991        H  0.60840424  0.15271982  0.91930841     0.15900
N992        N  0.65878394  0.15827494  0.90216153     0.75000
O993        O  0.55547450  0.14354791  0.78864895    -0.38500
O994        O  0.55883620  0.10671306  0.76915683    -0.38400
O995        O  0.67230400  0.18319410  0.91713636    -0.39100
O996        O  0.66198199  0.13847654  0.91720182    -0.39200
C997        C  0.67572608  0.01484469  0.76764135    -0.11500
C998        C  0.66170000  0.02930107  0.75396622     0.05500
C999        C  0.63179732  0.01313036  0.74689413    -0.06800
C1000       C  0.61690126  0.98313424  0.75245955    -0.07500
C1001       C  0.63115456  0.96865469  0.76537673    -0.02100
C1002       C  0.66082516  0.98512468  0.77437554     0.04700
N1003       N  0.67612503  0.97227056  0.79156606     0.67300
H1004       H  0.69839125  0.02681413  0.77465118     0.16200
H1005       H  0.59426505  0.97107527  0.74520599     0.15900
N1006       N  0.61637611  0.02657492  0.73255389     0.75000
O1007       O  0.69902090  0.97637480  0.77527030    -0.38500
O1008       O  0.66900773  0.96028820  0.82595033    -0.38400
O1009       O  0.61880256  0.03461188  0.69602971    -0.39100
O1010       O  0.59796964  0.02748968  0.75499574    -0.39200
C1011       C  0.78725287  0.98120030  0.22055893    -0.11500
C1012       C  0.81339596  0.00627715  0.21238697     0.05500
C1013       C  0.83419416  0.01818815  0.24348747    -0.06800
C1014       C  0.82778153  0.00577608  0.28270728    -0.07500
C1015       C  0.80097599  0.98130457  0.29119763    -0.02100
C1016       C  0.78112268  0.96836694  0.25905555     0.04700
N1017       N  0.75444283  0.94217462  0.26519470     0.67300
H1018       H  0.77122907  0.97165899  0.19682927     0.16200
H1019       H  0.84318840  0.01610995  0.30695344     0.15900
N1020       N  0.86088084  0.04407769  0.23657235     0.75000
O1021       O  0.73106138  0.94082697  0.25614586    -0.38500
O1022       O  0.75441001  0.91964258  0.27600088    -0.38400
O1023       O  0.86624910  0.06696999  0.25434076    -0.39100
O1024       O  0.88014816  0.04346126  0.21580751    -0.39200
C1025       C  0.77226283  0.12427416  0.91877472    -0.11500
C1026       C  0.75601871  0.10588977  0.88722963     0.05500
C1027       C  0.75120470  0.07753828  0.88655569    -0.06800
C1028       C  0.76347233  0.06849951  0.91648104    -0.07500
C1029       C  0.78030264  0.08700821  0.94777985    -0.02100
C1030       C  0.78452491  0.11523405  0.94873673     0.04700
N1031       N  0.80112140  0.13508695  0.97991252     0.67300
H1032       H  0.77626936  0.14611267  0.91946651     0.16200
H1033       H  0.75938705  0.04664707  0.91549126     0.15900
N1034       N  0.73303209  0.05734358  0.85647291     0.75000
O1035       O  0.82774183  0.15156834  0.97489032    -0.38500
O1036       O  0.78858102  0.13972339  0.00858889    -0.38400
O1037       O  0.74121853  0.04244682  0.83755908    -0.39100
O1038       O  0.70766410  0.05223730  0.85182270    -0.39200
C1039       C  0.65148704  0.13357760  0.62066556    -0.11500
C1040       C  0.68130144  0.15082750  0.62669440     0.05500
C1041       C  0.69904442  0.16391124  0.59245766    -0.06800
C1042       C  0.68714482  0.15720997  0.55327775    -0.07500
C1043       C  0.65783895  0.13777338  0.54756120    -0.02100
C1044       C  0.63975016  0.12663551  0.58160259     0.04700
N1045       N  0.60965703  0.10681424  0.57699301     0.67300
H1046       H  0.63733888  0.12365264  0.64635576     0.16200
H1047       H  0.70118960  0.16567000  0.52717689     0.15900
N1048       N  0.72945076  0.18167401  0.59651495     0.75000
O1049       O  0.60101267  0.08122378  0.56641417    -0.38500
O1050       O  0.59177625  0.11343284  0.58989313    -0.38400
O1051       O  0.74565126  0.17347246  0.58177098    -0.39100
O1052       O  0.74008369  0.20726795  0.60858994    -0.39200
C1053       C  0.50768587  0.11629606  0.36086562    -0.11500
C1054       C  0.51617482  0.13989426  0.33454153     0.05500
C1055       C  0.54596441  0.15878208  0.32800623    -0.06800
C1056       C  0.56613453  0.15322967  0.34694738    -0.07500
C1057       C  0.55715026  0.12873686  0.37135673    -0.02100
C1058       C  0.52763383  0.11056227  0.37907566     0.04700
N1059       N  0.51752003  0.08575287  0.40486507     0.67300
H1060       H  0.48518414  0.10162701  0.36707535     0.16200
H1061       H  0.58873902  0.16697430  0.34027338     0.15900
N1062       N  0.55617027  0.18275180  0.30082208     0.75000
O1063       O  0.52757695  0.08824163  0.44020427    -0.38500
O1064       O  0.49737277  0.06161431  0.39323415    -0.38400
O1065       O  0.57252814  0.20785742  0.31394843    -0.39100
O1066       O  0.55386471  0.17845268  0.26303468    -0.39200
C1067       C  0.51010658  0.98551988  0.54926798    -0.11500
C1068       C  0.48456450  0.98455268  0.53717627     0.05500
C1069       C  0.48495078  0.99994515  0.50216708    -0.06800
C1070       C  0.51006816  0.01470956  0.47943005    -0.07500
C1071       C  0.53548474  0.01536092  0.49105310    -0.02100
C1072       C  0.53539192  0.00063546  0.52661441     0.04700
N1073       N  0.56033324  0.99986502  0.53942555     0.67300
H1074       H  0.51034727  0.97370338  0.57579815     0.16200
H1075       H  0.50972980  0.02649786  0.45293441     0.15900
N1076       N  0.46035382  0.00149985  0.48958769     0.75000
O1077       O  0.57192518  0.01065606  0.57305365    -0.38500
O1078       O  0.56814355  0.98479306  0.52016579    -0.38400
O1079       O  0.45124558  0.01431072  0.51157169    -0.39100
O1080       O  0.45089011  0.99453252  0.45389742    -0.39200
C1081       C  0.67853769  0.01920901  0.39382336    -0.11500
C1082       C  0.68324259  0.03911304  0.42445201     0.05500
C1083       C  0.70141921  0.04250527  0.45713901    -0.06800
C1084       C  0.71468374  0.02580839  0.45890776    -0.07500
C1085       C  0.70996180  0.00557919  0.42832640    -0.02100
C1086       C  0.69120365  0.00205475  0.39595468     0.04700
N1087       N  0.68347909  0.98037816  0.36563013     0.67300
H1088       H  0.66445049  0.01617995  0.37002624     0.16200
H1089       H  0.72884498  0.02904674  0.48354193     0.15900
N1090       N  0.70768258  0.06363581  0.48783703     0.75000
O1091       O  0.66782985  0.95420707  0.37520057    -0.38500
O1092       O  0.68748274  0.98740152  0.32863106    -0.38400
O1093       O  0.70585481  0.05684397  0.52485503    -0.39100
O1094       O  0.71806040  0.08972278  0.47801863    -0.39200
C1095       C  0.53373982  0.83324735  0.91565896    -0.11500
C1096       C  0.52824319  0.84664609  0.88281687     0.05500
C1097       C  0.51521587  0.86325543  0.89094129    -0.06800
C1098       C  0.51076760  0.86851173  0.93100217    -0.07500
C1099       C  0.51824756  0.85692139  0.96365468    -0.02100
C1100       C  0.52882652  0.83828216  0.95589584     0.04700
N1101       N  0.53733538  0.82669160  0.98857103     0.67300
H1102       H  0.54372640  0.82045652  0.91038099     0.16200
H1103       H  0.50246099  0.88275884  0.93670024     0.15900
N1104       N  0.50709993  0.87569351  0.85890140     0.75000
O1105       O  0.51996936  0.80204420  0.00250638    -0.38500
O1106       O  0.56295260  0.83990794  0.00100262    -0.38400
O1107       O  0.48395875  0.86029520  0.83998640    -0.39100
O1108       O  0.52025135  0.90265339  0.85426209    -0.39200
C1109       C  0.41380148  0.85125866  0.17477260    -0.11500
C1110       C  0.42222698  0.86108568  0.13500828     0.05500
C1111       C  0.40458345  0.86735548  0.11051876    -0.06800
C1112       C  0.37935175  0.86472996  0.12681403    -0.07500
C1113       C  0.37168157  0.85629617  0.16733051    -0.02100
C1114       C  0.38861881  0.84857023  0.19106632     0.04700
N1115       N  0.38088526  0.83872168  0.23207573     0.67300
H1116       H  0.42762379  0.84700648  0.19390799     0.16200
H1117       H  0.36658143  0.87086011  0.10848590     0.15900
N1118       N  0.41326945  0.87857432  0.07026338     0.75000
O1119       O  0.35617141  0.81790094  0.23998045    -0.38500
O1120       O  0.39928948  0.84955556  0.26007805    -0.38400
O1121       O  0.42092374  0.86599190  0.04538950    -0.39100
O1122       O  0.41316196  0.90102402  0.05937435    -0.39200
C1123       C  0.58904164  0.98538615  0.23994944    -0.11500
C1124       C  0.56060990  0.97431787  0.22679135     0.05500
C1125       C  0.54461496  0.98625259  0.24248534    -0.06800
C1126       C  0.55714390  0.00866086  0.27072006    -0.07500
C1127       C  0.58563473  0.01982463  0.28379419    -0.02100
C1128       C  0.60171444  0.00804325  0.26778495     0.04700
N1129       N  0.63059988  0.01804752  0.28036597     0.67300
H1130       H  0.60186597  0.97686539  0.22785807     0.16200
H1131       H  0.54429392  0.01712612  0.28289346     0.15900
N1132       N  0.51533043  0.97528233  0.23112510     0.75000
O1133       O  0.63625888  0.00147040  0.30031789    -0.38500
O1134       O  0.65081377  0.04037787  0.26420768    -0.38400
O1135       O  0.49592924  0.95199784  0.24636642    -0.39100
O1136       O  0.50852173  0.99050035  0.20992079    -0.39200
C1137       C  0.68470257  0.96830300  0.05559026    -0.11500
C1138       C  0.70044058  0.99023462  0.08410543     0.05500
C1139       C  0.68521277  0.99533699  0.11470101    -0.06800
C1140       C  0.65528909  0.97852270  0.11652939    -0.07500
C1141       C  0.63985691  0.95695710  0.08793598    -0.02100
C1142       C  0.65465403  0.95160413  0.05739332     0.04700
N1143       N  0.63958543  0.92847295  0.02932223     0.67300
H1144       H  0.69575018  0.96364247  0.03215053     0.16200
H1145       H  0.64392235  0.98291285  0.13984448     0.15900
N1146       N  0.69955253  0.01808953  0.14337527     0.75000
O1147       O  0.64407488  0.93288425  0.99172037    -0.38500
O1148       O  0.62409106  0.90307400  0.04228287    -0.38400
O1149       O  0.70538290  0.04322915  0.13404236    -0.39100
O1150       O  0.70224013  0.01230507  0.17969262    -0.39200
C1151       C  0.51802778  0.00968273  0.96547639    -0.11500
C1152       C  0.50117066  0.01912476  0.98539569     0.05500
C1153       C  0.49260956  0.01005584  0.02590936    -0.06800
C1154       C  0.50100353  0.99221777  0.04496341    -0.07500
C1155       C  0.51735848  0.98241936  0.02487374    -0.02100
C1156       C  0.52605235  0.99152205  0.98463443     0.04700
N1157       N  0.54257298  0.98221938  0.96243530     0.67300
H1158       H  0.52493436  0.01619746  0.93447907     0.16200
H1159       H  0.49410903  0.98561938  0.07594488     0.15900
N1160       N  0.47577828  0.01874129  0.04883733     0.75000
O1161       O  0.53004370  0.95984286  0.94097049    -0.38500
O1162       O  0.56942183  0.99838911  0.95980970    -0.38400
O1163       O  0.45010483  0.00982686  0.03856542    -0.39100
O1164       O  0.48343809  0.02771043  0.08458049    -0.39200
C1165       C  0.46384468  0.17113024  0.79933381    -0.11500
C1166       C  0.48091692  0.17698812  0.83436431     0.05500
C1167       C  0.49444550  0.20518822  0.85048929    -0.06800
C1168       C  0.48936062  0.22602056  0.83307011    -0.07500
C1169       C  0.47137070  0.21965710  0.79920679    -0.02100
C1170       C  0.45904669  0.19209167  0.78175918     0.04700
N1171       N  0.43957767  0.18425862  0.74836569     0.67300
H1172       H  0.45326195  0.14982348  0.78615638     0.16200
H1173       H  0.49896759  0.24713473  0.84677760     0.15900
N1174       N  0.51238981  0.21281157  0.88559637     0.75000
O1175       O  0.44823842  0.18437061  0.71283378    -0.38500
O1176       O  0.41311796  0.17381032  0.75488066    -0.38400
O1177       O  0.53931370  0.22683033  0.88161130    -0.39100
O1178       O  0.50148475  0.20916134  0.92047188    -0.39200
C1179       C  0.33204990  0.18582951  0.67717193    -0.11500
C1180       C  0.36147431  0.19867399  0.66854940     0.05500
C1181       C  0.37065893  0.18471590  0.64131514    -0.06800
C1182       C  0.35067668  0.15773375  0.62562646    -0.07500
C1183       C  0.32132696  0.14453753  0.63513998    -0.02100
C1184       C  0.31203859  0.15929216  0.66060007     0.04700
N1185       N  0.28247761  0.14747588  0.67089441     0.67300
H1186       H  0.32438492  0.19608622  0.69774589     0.16200
H1187       H  0.35822805  0.14732942  0.60514083     0.15900
N1188       N  0.39997975  0.19772902  0.62857920     0.75000
O1189       O  0.27385052  0.13697690  0.70579615    -0.38500
O1190       O  0.26650698  0.15237846  0.64827683    -0.38400
O1191       O  0.41289566  0.18370485  0.63072310    -0.39100
O1192       O  0.41154226  0.22146259  0.60982774    -0.39200
C1193       C  0.19962790  0.06664533  0.05398905    -0.11500
C1194       C  0.20377271  0.08848646  0.02666982     0.05500
C1195       C  0.20340460  0.08356771  0.98467313    -0.06800
C1196       C  0.20193286  0.05838569  0.97084795    -0.07500
C1197       C  0.20036117  0.03744592  0.99802619    -0.02100
C1198       C  0.19795897  0.04116394  0.04004552     0.04700
N1199       N  0.19645633  0.02066488  0.06913954     0.67300
H1200       H  0.20038117  0.07045725  0.08632560     0.16200
H1201       H  0.20260242  0.05550001  0.93845124     0.15900
N1202       N  0.20593423  0.10474816  0.95579551     0.75000
O1203       O  0.21833413  0.01858559  0.07615896    -0.38500
O1204       O  0.17472698  0.00763030  0.09172288    -0.38400
O1205       O  0.22363579  0.11224419  0.92694419    -0.39100
O1206       O  0.18956718  0.11507830  0.95805727    -0.39200
C1207       C  0.33503720  0.24437548  0.87029697    -0.11500
C1208       C  0.36144175  0.24564298  0.87686908     0.05500
C1209       C  0.36662305  0.23709466  0.91501113    -0.06800
C1210       C  0.34532633  0.22709460  0.94513439    -0.07500
C1211       C  0.31884006  0.22560613  0.93829359    -0.02100
C1212       C  0.31407144  0.23492809  0.90059912     0.04700
N1213       N  0.28785154  0.23445649  0.89221816     0.67300
H1214       H  0.33061221  0.25097674  0.84142469     0.16200
H1215       H  0.34952381  0.22033250  0.97406755     0.15900
N1216       N  0.39286986  0.23748935  0.92329471     0.75000
O1217       O  0.28677366  0.25721715  0.89566390    -0.38500
O1218       O  0.26723466  0.21260727  0.87591320    -0.38400
O1219       O  0.40773004  0.25075050  0.95387615    -0.39100
O1220       O  0.39951380  0.22194561  0.90287562    -0.39200
C1221       C  0.36036271  0.18520220  0.19109458    -0.11500
C1222       C  0.36019333  0.15982694  0.18050158     0.05500
C1223       C  0.34321836  0.14352936  0.14751656    -0.06800
C1224       C  0.32691491  0.15274430  0.12600128    -0.07500
C1225       C  0.32695484  0.17808552  0.13674171    -0.02100
C1226       C  0.34426547  0.19456698  0.16948674     0.04700
N1227       N  0.34638875  0.22118668  0.18085471     0.67300
H1228       H  0.37352871  0.19829824  0.21578628     0.16200
H1229       H  0.31368152  0.13953252  0.10134518     0.15900
N1230       N  0.34134037  0.11701592  0.13634951     0.75000
O1231       O  0.33893782  0.22402186  0.21597258    -0.38500
O1232       O  0.36013202  0.24310771  0.15858858    -0.38400
O1233       O  0.32472549  0.09424200  0.15551336    -0.39100
O1234       O  0.35341482  0.11567399  0.10440859    -0.39200
C1235       C  0.39209841  0.37045852  0.72676521    -0.11500
C1236       C  0.37980616  0.34325714  0.74518519     0.05500
C1237       C  0.35361452  0.33267705  0.76636684    -0.06800
C1238       C  0.34020905  0.34910672  0.76833385    -0.07500
C1239       C  0.35205591  0.37599100  0.74903078    -0.02100
C1240       C  0.37853752  0.38681090  0.72838813     0.04700
N1241       N  0.39224810  0.41455771  0.70947267     0.67300
H1242       H  0.41235955  0.37909803  0.71091130     0.16200
H1243       H  0.31992383  0.34029525  0.78416068     0.15900
N1244       N  0.34066751  0.30562578  0.78712372     0.75000
O1245       O  0.40369220  0.43693111  0.73103871    -0.38500
O1246       O  0.39582754  0.41673125  0.67153028    -0.38400
O1247       O  0.34191910  0.30513720  0.82532378    -0.39100
O1248       O  0.32343991  0.28296915  0.76838383    -0.39200
C1249       C  0.23082910  0.21267523  0.27928007    -0.11500
C1250       C  0.20259032  0.20432040  0.28991764     0.05500
C1251       C  0.18041965  0.18826555  0.26170240    -0.06800
C1252       C  0.18730525  0.18276895  0.22255394    -0.07500
C1253       C  0.21596067  0.19224018  0.21153779    -0.02100
C1254       C  0.23761897  0.20632284  0.24136205     0.04700
N1255       N  0.26683246  0.21428144  0.23385130     0.67300
H1256       H  0.24801013  0.22426413  0.30093703     0.16200
H1257       H  0.17032981  0.17178698  0.20046385     0.15900
N1258       N  0.15117645  0.17876290  0.27149041     0.75000
O1259       O  0.28656092  0.24018935  0.23728041    -0.38500
O1260       O  0.27321970  0.19502851  0.22817152    -0.38400
O1261       O  0.13722839  0.18722023  0.25052044    -0.39100
O1262       O  0.13820766  0.15899048  0.29735196    -0.39200
C1263       C  0.21113953  0.13283860  0.54756496    -0.11500
C1264       C  0.20624690  0.11042742  0.52109623     0.05500
C1265       C  0.19610017  0.11038919  0.48150407    -0.06800
C1266       C  0.19235408  0.13313288  0.46869785    -0.07500
C1267       C  0.19865262  0.15625869  0.49452421    -0.02100
C1268       C  0.20744878  0.15562497  0.53476441     0.04700
N1269       N  0.21300667  0.17806002  0.56288427     0.67300
H1270       H  0.21891179  0.13328314  0.57804856     0.16200
H1271       H  0.18555758  0.13322188  0.43776229     0.15900
N1272       N  0.19005607  0.08774699  0.45361939     0.75000
O1273       O  0.19343596  0.18342117  0.57157239    -0.38500
O1274       O  0.23653521  0.19070261  0.58185184    -0.38400
O1275       O  0.16836519  0.06311062  0.45896546    -0.39100
O1276       O  0.20456089  0.09310485  0.42148668    -0.39200
C1277       C  0.25999227  0.32101721  0.57353959    -0.11500
C1278       C  0.23179324  0.30983904  0.55919994     0.05500
C1279       C  0.21516326  0.32119569  0.57454213    -0.06800
C1280       C  0.22690091  0.34335531  0.60308955    -0.07500
C1281       C  0.25515664  0.35476052  0.61717661    -0.02100
C1282       C  0.27174704  0.34311884  0.60245886     0.04700
N1283       N  0.30012309  0.35271366  0.61739949     0.67300
H1284       H  0.27310944  0.31264400  0.56210589     0.16200
H1285       H  0.21371679  0.35174199  0.61422082     0.15900
N1286       N  0.18612702  0.31025190  0.56189452     0.75000
O1287       O  0.30396183  0.34975979  0.65450570    -0.38500
O1288       O  0.32059979  0.36026676  0.59281440    -0.38400
O1289       O  0.16611380  0.28865259  0.57968025    -0.39100
O1290       O  0.18018970  0.32455452  0.53734338    -0.39200
C1291       C  0.31043210  0.45228534  0.91242140    -0.11500
C1292       C  0.32716152  0.46791967  0.87903159     0.05500
C1293       C  0.35462616  0.49224278  0.88557923    -0.06800
C1294       C  0.36514513  0.49963225  0.92549970    -0.07500
C1295       C  0.34886156  0.48294837  0.95860253    -0.02100
C1296       C  0.32092735  0.45973203  0.95199319     0.04700
N1297       N  0.30369461  0.44251314  0.98522926     0.67300
H1298       H  0.28930856  0.43370162  0.90763578     0.16200
H1299       H  0.38703083  0.51679889  0.93038650     0.15900
N1300       N  0.37314611  0.50773779  0.85222173     0.75000
O1301       O  0.29678825  0.45382353  0.01312230    -0.38500
O1302       O  0.29416672  0.41575250  0.98575470    -0.38400
O1303       O  0.38826454  0.53482171  0.85338953    -0.39100
O1304       O  0.37733708  0.49433858  0.82426443    -0.39200
C1305       C  0.31974976  0.34957824  0.11085106    -0.11500
C1306       C  0.33475092  0.36609067  0.07664996     0.05500
C1307       C  0.33398701  0.35165164  0.04051611    -0.06800
C1308       C  0.31812005  0.32154465  0.03911995    -0.07500
C1309       C  0.30330099  0.30533339  0.07334178    -0.02100
C1310       C  0.30414098  0.31951549  0.10945728     0.04700
N1311       N  0.28840699  0.30368924  0.14449964     0.67300
H1312       H  0.31999326  0.35998480  0.13899956     0.16200
H1313       H  0.31788790  0.31073599  0.01135989     0.15900
N1314       N  0.34936132  0.36707135  0.00510165     0.75000
O1315       O  0.30146610  0.30536818  0.17711104    -0.38500
O1316       O  0.26133048  0.29052535  0.14411932    -0.38400
O1317       O  0.37263772  0.36828047  0.99604759    -0.39100
O1318       O  0.33792501  0.37617706  0.98023754    -0.39200
C1319       C  0.50279264  0.36971019  0.57289346    -0.11500
C1320       C  0.49694504  0.35124129  0.54007062     0.05500
C1321       C  0.48812418  0.32216721  0.54752342    -0.06800
C1322       C  0.48236732  0.31140692  0.58749894    -0.07500
C1323       C  0.48574455  0.32949020  0.62035840    -0.02100
C1324       C  0.49784074  0.35931290  0.61271548     0.04700
N1325       N  0.50534958  0.37951289  0.64493327     0.67300
H1326       H  0.51023329  0.39227544  0.56749166     0.16200
H1327       H  0.47358747  0.28857723  0.59246414     0.15900
N1328       N  0.48282891  0.30293963  0.51465369     0.75000
O1329       O  0.53143850  0.39475251  0.65459508    -0.38500
O1330       O  0.48799220  0.38753895  0.65520690    -0.38400
O1331       O  0.50220515  0.29790785  0.50357579    -0.39100
O1332       O  0.45789713  0.28843646  0.50003122    -0.39200
C1333       C  0.49674994  0.26396043  0.32556405    -0.11500
C1334       C  0.47568188  0.25003473  0.29574378     0.05500
C1335       C  0.46007314  0.26283506  0.28156640    -0.06800
C1336       C  0.46470727  0.28846513  0.29876990    -0.07500
C1337       C  0.48445426  0.30178165  0.33052761    -0.02100
C1338       C  0.50103901  0.28947456  0.34355262     0.04700
N1339       N  0.52054907  0.30105397  0.37699201     0.67300
H1340       H  0.50819126  0.25375018  0.33732836     0.16200
H1341       H  0.45211590  0.29759309  0.28763610     0.15900
N1342       N  0.43853536  0.24934414  0.25072919     0.75000
O1343       O  0.51082940  0.29870942  0.41244818    -0.38500
O1344       O  0.54648252  0.30811510  0.37227254    -0.38400
O1345       O  0.41426976  0.24711352  0.25506621    -0.39100
O1346       O  0.44429695  0.24124157  0.21802866    -0.39200
C1347       C  0.45436122  0.46426491  0.23825778    -0.11500
C1348       C  0.42848237  0.44495468  0.21911862     0.05500
C1349       C  0.41507407  0.41545237  0.22906599    -0.06800
C1350       C  0.42779352  0.40586196  0.25748278    -0.07500
C1351       C  0.45390938  0.42514461  0.27655490    -0.02100
C1352       C  0.46718076  0.45480261  0.26664963     0.04700
N1353       N  0.49383602  0.47569257  0.28455438     0.67300
H1354       H  0.46500566  0.48695129  0.23067491     0.16200
H1355       H  0.41698806  0.38312780  0.26473919     0.15900
N1356       N  0.38919116  0.39477108  0.20933629     0.75000
O1357       O  0.51640285  0.47501514  0.27712367    -0.38500
O1358       O  0.49568304  0.49730779  0.30221012    -0.38400
O1359       O  0.39030459  0.38529186  0.17486796    -0.39100
O1360       O  0.36566547  0.38359700  0.22820865    -0.39200
C1361       C  0.32980825  0.30445473  0.45517268    -0.11500
C1362       C  0.31357934  0.29879146  0.41933405     0.05500
C1363       C  0.32818405  0.30858076  0.38194040    -0.06800
C1364       C  0.35827412  0.32362849  0.38121735    -0.07500
C1365       C  0.37446141  0.32913303  0.41698629    -0.02100
C1366       C  0.35991804  0.31944495  0.45431717     0.04700
N1367       N  0.37533466  0.32387526  0.49146986     0.67300
H1368       H  0.31906839  0.29725924  0.48417483     0.16200
H1369       H  0.36907880  0.33099715  0.35228056     0.15900
N1370       N  0.31292046  0.30275508  0.34429354     0.75000
O1371       O  0.37458051  0.34007401  0.51835652    -0.38500
O1372       O  0.38719914  0.30932241  0.49913635    -0.38400
O1373       O  0.31875273  0.32299853  0.31965551    -0.39100
O1374       O  0.29644358  0.27708545  0.33333941    -0.39200
C1375       C  0.56217496  0.41486361  0.81969274    -0.11500
C1376       C  0.56338005  0.42057196  0.86133955     0.05500
C1377       C  0.54271902  0.39901663  0.88720192    -0.06800
C1378       C  0.52045029  0.37337546  0.87063754    -0.07500
C1379       C  0.51811294  0.36896560  0.82853558    -0.02100
C1380       C  0.53991840  0.38958893  0.80322544     0.04700
N1381       N  0.53908257  0.38592290  0.76026896     0.67300
H1382       H  0.57801133  0.43066421  0.79922082     0.16200
H1383       H  0.50394813  0.35775607  0.89054255     0.15900
N1384       N  0.54256911  0.40368085  0.92978968     0.75000
O1385       O  0.53477410  0.40229420  0.73757190    -0.38500
O1386       O  0.54668357  0.36937370  0.74498607    -0.38400
O1387       O  0.52766761  0.41372726  0.94359532    -0.39100
O1388       O  0.55389096  0.39400866  0.95391516    -0.39200
C1389       C  0.51735545  0.51498973  0.96390457    -0.11500
C1390       C  0.53448926  0.50454465  0.98018889     0.05500
C1391       C  0.52497275  0.48705962  0.01543424    -0.06800
C1392       C  0.49932353  0.48120207  0.03409083    -0.07500
C1393       C  0.48235517  0.49161794  0.01773707    -0.02100
C1394       C  0.49140445  0.50869053  0.98233983     0.04700
N1395       N  0.47519802  0.52080631  0.96589123     0.67300
H1396       H  0.52431469  0.52840187  0.93696459     0.16200
H1397       H  0.49246450  0.46820210  0.06144673     0.15900
N1398       N  0.54133760  0.47566515  0.03340485     0.75000
O1399       O  0.46881668  0.53582949  0.98799656    -0.38500
O1400       O  0.46996331  0.51916508  0.92834555    -0.38400
O1401       O  0.55140023  0.48340986  0.06867126    -0.39100
O1402       O  0.54003998  0.45352515  0.01839809    -0.39200
C1403       C  0.40782530  0.53569721  0.61232638    -0.11500
C1404       C  0.42635543  0.55823491  0.63781071     0.05500
C1405       C  0.41756049  0.55971760  0.67737150    -0.06800
C1406       C  0.39093987  0.53794011  0.69161394    -0.07500
C1407       C  0.37313258  0.51413787  0.66717602    -0.02100
C1408       C  0.38122872  0.51368888  0.62651912     0.04700
N1409       N  0.36310763  0.49067338  0.59973466     0.67300
H1410       H  0.41468539  0.53442116  0.58194056     0.16200
H1411       H  0.38521042  0.53862608  0.72288263     0.15900
N1412       N  0.43641275  0.58208123  0.70433600     0.75000
O1413       O  0.33757495  0.48462845  0.59355275    -0.38500
O1414       O  0.37318997  0.47780160  0.57988619    -0.38400
O1415       O  0.43484116  0.60458372  0.70742357    -0.39100
O1416       O  0.45237150  0.57803277  0.72820128    -0.39200
C1417       C  0.52296553  0.71812312  0.64602434    -0.11500
C1418       C  0.52782657  0.69979495  0.67094800     0.05500
C1419       C  0.53537022  0.70734695  0.71205722    -0.06800
C1420       C  0.53997961  0.73384839  0.72637260    -0.07500
C1421       C  0.53687807  0.75299002  0.70069273    -0.02100
C1422       C  0.52726391  0.74442913  0.66046596     0.04700
N1423       N  0.52231983  0.76244644  0.63359847     0.67300
H1424       H  0.51689896  0.71258539  0.61456972     0.16200
H1425       H  0.54701606  0.73989497  0.75741733     0.15900
N1426       N  0.53866389  0.68849851  0.73953430     0.75000
O1427       O  0.53641444  0.77148138  0.60105482    -0.38500
O1428       O  0.50214786  0.76723944  0.64060995    -0.38400
O1429       O  0.56063428  0.69808550  0.76183915    -0.39100
O1430       O  0.51838268  0.66296254  0.74439351    -0.39200
C1431       C  0.52597624  0.52971859  0.48672226    -0.11500
C1432       C  0.51527878  0.52655666  0.52628001     0.05500
C1433       C  0.49678148  0.49851723  0.54149241    -0.06800
C1434       C  0.48958858  0.47457115  0.51729363    -0.07500
C1435       C  0.50033299  0.47768066  0.47772860    -0.02100
C1436       C  0.51842602  0.50581878  0.46214158     0.04700
N1437       N  0.52858708  0.51076724  0.42110858     0.67300
H1438       H  0.53960933  0.55100019  0.47411441     0.16200
H1439       H  0.47591373  0.45335322  0.53006720     0.15900
N1440       N  0.48567463  0.49378611  0.58185822     0.75000
O1441       O  0.51081616  0.50278667  0.39222481    -0.38500
O1442       O  0.55488009  0.52758241  0.41387931    -0.38400
O1443       O  0.45973999  0.48636197  0.58762564    -0.39100
O1444       O  0.50042820  0.49279520  0.61090272    -0.39200
C1445       C  0.58432225  0.59833826  0.75397401    -0.11500
C1446       C  0.56650634  0.57966279  0.72349528     0.05500
C1447       C  0.56240888  0.55149040  0.72189046    -0.06800
C1448       C  0.57572614  0.54266854  0.75052888    -0.07500
C1449       C  0.59288197  0.56119187  0.78142157    -0.02100
C1450       C  0.59762099  0.58953233  0.78262096     0.04700
N1451       N  0.61643026  0.60984677  0.81220555     0.67300
H1452       H  0.58829887  0.62014151  0.75535822     0.16200
H1453       H  0.57168036  0.52082175  0.74954305     0.15900
N1454       N  0.54474793  0.53142744  0.69152905     0.75000
O1455       O  0.64134425  0.61378858  0.81739079    -0.38500
O1456       O  0.60921487  0.62576770  0.83045841    -0.38400
O1457       O  0.55624792  0.52647933  0.66178300    -0.39100
O1458       O  0.51824246  0.51527166  0.69797915    -0.39200
C1459       C  0.55947826  0.68231181  0.45254949    -0.11500
C1460       C  0.53298146  0.65780697  0.46095163     0.05500
C1461       C  0.51178532  0.64638007  0.43020878    -0.06800
C1462       C  0.51818762  0.65912816  0.39114444    -0.07500
C1463       C  0.54553801  0.68270007  0.38228838    -0.02100
C1464       C  0.56575225  0.69503755  0.41412466     0.04700
N1465       N  0.59291292  0.72064401  0.40783594     0.67300
H1466       H  0.57565053  0.69158801  0.47614093     0.16200
H1467       H  0.50256298  0.64930458  0.36702133     0.15900
N1468       N  0.48476760  0.62067073  0.43705827     0.75000
O1469       O  0.59383775  0.74368154  0.39743956    -0.38500
O1470       O  0.61588875  0.72095146  0.41625542    -0.38400
O1471       O  0.46183636  0.61915201  0.42497958    -0.39100
O1472       O  0.48402928  0.59837119  0.45075009    -0.39200
C1473       C  0.44829070  0.59519690  0.16172990    -0.11500
C1474       C  0.45468035  0.58386537  0.12786027     0.05500
C1475       C  0.48232552  0.59885894  0.11093691    -0.06800
C1476       C  0.50366955  0.62383209  0.12946394    -0.07500
C1477       C  0.49818526  0.63423991  0.16538554    -0.02100
C1478       C  0.46976875  0.62015804  0.18074290     0.04700
N1479       N  0.46277293  0.62941295  0.21728790     0.67300
H1480       H  0.42720190  0.58338142  0.17543090     0.16200
H1481       H  0.52497303  0.63442234  0.11636003     0.15900
N1482       N  0.48940685  0.58794216  0.07613120     0.75000
O1483       O  0.44803987  0.64158484  0.21561979    -0.38500
O1484       O  0.46717726  0.62127377  0.25114575    -0.38400
O1485       O  0.48370069  0.59321013  0.04109593    -0.39100
O1486       O  0.50426607  0.57601728  0.08011661    -0.39200
C1487       C  0.55015161  0.80405124  0.22739344    -0.11500
C1488       C  0.53800202  0.77752466  0.20768528     0.05500
C1489       C  0.51880450  0.77166682  0.17534852    -0.06800
C1490       C  0.51333218  0.79316444  0.16170811    -0.07500
C1491       C  0.52739351  0.82076217  0.17929228    -0.02100
C1492       C  0.54482843  0.82555260  0.21393916     0.04700
N1493       N  0.55823395  0.85245361  0.23491108     0.67300
H1494       H  0.56489151  0.80853818  0.25241259     0.16200
H1495       H  0.49986516  0.78890931  0.13522330     0.15900
N1496       N  0.50688844  0.74508719  0.15374951     0.75000
O1497       O  0.54313547  0.85983241  0.25494969    -0.38500
O1498       O  0.58524629  0.86737924  0.23692168    -0.38400
O1499       O  0.48003913  0.72859134  0.15232699    -0.39100
O1500       O  0.52288880  0.73970663  0.13222243    -0.39200
C1501       C  0.65826026  0.80569666  0.35603088    -0.11500
C1502       C  0.65885619  0.80807339  0.31364382     0.05500
C1503       C  0.67436002  0.83554433  0.29529940    -0.06800
C1504       C  0.68818995  0.86002081  0.31977657    -0.07500
C1505       C  0.68761448  0.85758844  0.36218340    -0.02100
C1506       C  0.67217803  0.83014397  0.38033355     0.04700
N1507       N  0.66865153  0.82690672  0.42333379     0.67300
H1508       H  0.64587564  0.78490412  0.37044792     0.16200
H1509       H  0.70058628  0.88089077  0.30554328     0.15900
N1510       N  0.67746296  0.83886056  0.25207236     0.75000
O1511       O  0.65223472  0.83383124  0.44064996    -0.38500
O1512       O  0.67728579  0.81235877  0.44249583    -0.38400
O1513       O  0.67501434  0.85836457  0.23441395    -0.39100
O1514       O  0.68607373  0.82468270  0.23219565    -0.39200
C1515       C  0.80215777  0.93054758  0.95048478    -0.11500
C1516       C  0.80864540  0.91346668  0.97563278     0.05500
C1517       C  0.81995607  0.92361426  0.01471405    -0.06800
C1518       C  0.82337326  0.94970961  0.02841575    -0.07500
C1519       C  0.81535351  0.96599913  0.00413286    -0.02100
C1520       C  0.80535402  0.95657309  0.96428937     0.04700
N1521       N  0.79798354  0.97292314  0.93763807     0.67300
H1522       H  0.79344432  0.92314103  0.92042361     0.16200
H1523       H  0.83109685  0.95652855  0.05903262     0.15900
N1524       N  0.82731429  0.90730919  0.04137721     0.75000
O1525       O  0.81701405  0.99777113  0.92637319    -0.38500
O1526       O  0.77319565  0.96153377  0.92227325    -0.38400
O1527       O  0.85189026  0.91002272  0.03925950    -0.39100
O1528       O  0.81110974  0.89380302  0.07082895    -0.39200
C1529       C  0.73013756  0.68304566  0.92101023    -0.11500
C1530       C  0.71511535  0.69760729  0.91304822     0.05500
C1531       C  0.68508654  0.68114939  0.90699985    -0.06800
C1532       C  0.67080386  0.65121770  0.91049978    -0.07500
C1533       C  0.68562771  0.63663218  0.91925892    -0.02100
C1534       C  0.71576355  0.65291415  0.92430231     0.04700
N1535       N  0.73202732  0.63941248  0.93417269     0.67300
H1536       H  0.75309050  0.69510682  0.92612078     0.16200
H1537       H  0.64784813  0.63930098  0.90533984     0.15900
N1538       N  0.66863101  0.69432802  0.89655150     0.75000
O1539       O  0.75134793  0.64174926  0.91035359    -0.38500
O1540       O  0.72972589  0.62848954  0.96891009    -0.38400
O1541       O  0.66809874  0.70164587  0.86027533    -0.39100
O1542       O  0.65173879  0.69510385  0.92219514    -0.39200
C1543       C  0.67322992  0.74818452  0.05106794    -0.11500
C1544       C  0.69871072  0.77472831  0.05627139     0.05500
C1545       C  0.70148483  0.79141017  0.09061960    -0.06800
C1546       C  0.67878852  0.78162279  0.11844985    -0.07500
C1547       C  0.65315274  0.75518249  0.11291770    -0.02100
C1548       C  0.65050961  0.73842273  0.07862237     0.04700
N1549       N  0.62450540  0.71202826  0.07033401     0.67300
H1550       H  0.67054223  0.73516847  0.02463626     0.16200
H1551       H  0.68143852  0.79465222  0.14483607     0.15900
N1552       N  0.72669998  0.81875405  0.09692421     0.75000
O1553       O  0.60149188  0.71217507  0.06417472    -0.38500
O1554       O  0.62518158  0.68925052  0.06435378    -0.38400
O1555       O  0.72738955  0.84138803  0.08496926    -0.39100
O1556       O  0.74679468  0.82055086  0.11871712    -0.39200
C1557       C  0.66551864  0.80449142  0.85017414    -0.11500
C1558       C  0.69176576  0.82711436  0.86440823     0.05500
C1559       C  0.69711995  0.85565416  0.86180104    -0.06800
C1560       C  0.67701740  0.86099574  0.84264284    -0.07500
C1561       C  0.65107004  0.83841773  0.82742977    -0.02100
C1562       C  0.64528376  0.80982670  0.83163581     0.04700
N1563       N  0.61974172  0.78606336  0.81527559     0.67300
H1564       H  0.66108862  0.78252966  0.85205356     0.16200
H1565       H  0.68134231  0.88291615  0.84071575     0.15900
N1566       N  0.72198784  0.87918924  0.88026884     0.75000
O1567       O  0.61638847  0.78316940  0.77733240    -0.38500
O1568       O  0.60241194  0.76609779  0.83839275    -0.38400
O1569       O  0.73556337  0.90306477  0.86207385    -0.39100
O1570       O  0.72780885  0.87750478  0.91695786    -0.39200
C1571       C  0.80162021  0.82589555  0.75949955    -0.11500
C1572       C  0.81316202  0.81828243  0.79218326     0.05500
C1573       C  0.83143744  0.80725640  0.78387692    -0.06800
C1574       C  0.83615100  0.80211233  0.74380821    -0.07500
C1575       C  0.82282791  0.80760379  0.71120429    -0.02100
C1576       C  0.80627826  0.82073905  0.71932611     0.04700
N1577       N  0.79331444  0.82821710  0.68724917     0.67300
H1578       H  0.78772917  0.83459523  0.76514300     0.16200
H1579       H  0.84921872  0.79243997  0.73847210     0.15900
N1580       N  0.84545746  0.80115225  0.81586520     0.75000
O1581       O  0.76635402  0.81503421  0.68363640    -0.38500
O1582       O  0.80854352  0.85006896  0.66551490    -0.38400
O1583       O  0.83700734  0.77534895  0.82532064    -0.39100
O1584       O  0.86975222  0.82077583  0.82771386    -0.39200
C1585       C  0.81620528  0.86337896  0.52988419    -0.11500
C1586       C  0.81723774  0.84388972  0.50276615     0.05500
C1587       C  0.81773331  0.84913510  0.46062795    -0.06800
C1588       C  0.81424692  0.87190316  0.44657692    -0.07500
C1589       C  0.81080517  0.88975058  0.47406762    -0.02100
C1590       C  0.81313188  0.88615278  0.51591289     0.04700
N1591       N  0.81070082  0.90458951  0.54468280     0.67300
H1592       H  0.81668163  0.86031367  0.56233417     0.16200
H1593       H  0.81211842  0.87429821  0.41431674     0.15900
N1594       N  0.81909348  0.83011437  0.43185783     0.75000
O1595       O  0.78824873  0.89530060  0.56576198    -0.38500
O1596       O  0.83227846  0.92879881  0.55259017    -0.38400
O1597       O  0.79645695  0.81111611  0.41487026    -0.39100
O1598       O  0.84316021  0.83456756  0.41979328    -0.39200
C1599       C  0.68916916  0.72007751  0.59595813    -0.11500
C1600       C  0.70349568  0.70428513  0.59704974     0.05500
C1601       C  0.68683267  0.67380261  0.59850412    -0.06800
C1602       C  0.65692374  0.66007366  0.59592274    -0.07500
C1603       C  0.64289578  0.67589039  0.59428148    -0.02100
C1604       C  0.65911839  0.70613262  0.59503302     0.04700
N1605       N  0.64540342  0.72291050  0.59297929     0.67300
H1606       H  0.70127227  0.74336215  0.59493618     0.16200
H1607       H  0.64444710  0.63678094  0.59702801     0.15900
N1608       N  0.69966424  0.65635659  0.60403888     0.75000
O1609       O  0.64559944  0.73709058  0.62345443    -0.38500
O1610       O  0.63574236  0.72593725  0.55955758    -0.38400
O1611       O  0.71228465  0.65771210  0.63697518    -0.39100
O1612       O  0.69385422  0.63609541  0.57973128    -0.39200
C1613       C  0.66283437  0.53992632  0.11249573    -0.11500
C1614       C  0.68329129  0.53290514  0.12571696     0.05500
C1615       C  0.69149953  0.51771142  0.09943715    -0.06800
C1616       C  0.68101805  0.51211888  0.05936282    -0.07500
C1617       C  0.66184458  0.52076244  0.04578481    -0.02100
C1618       C  0.65222280  0.53424000  0.07287785     0.04700
N1619       N  0.63311799  0.54397510  0.05991046     0.67300
H1620       H  0.65631792  0.55153207  0.13244497     0.16200
H1621       H  0.68833639  0.50165161  0.03859931     0.15900
N1622       N  0.71162610  0.50940490  0.11217013     0.75000
O1623       O  0.61201670  0.53920364  0.08180027    -0.38500
O1624       O  0.63953300  0.56074876  0.02986397    -0.38400
O1625       O  0.70382359  0.48858103  0.13646837    -0.39100
O1626       O  0.73571795  0.52004704  0.09493202    -0.39200
C1627       C  0.63579530  0.49678951  0.36931556    -0.11500
C1628       C  0.64438655  0.49396301  0.33023460     0.05500
C1629       C  0.62757751  0.46784501  0.30899377    -0.06800
C1630       C  0.60202584  0.44598254  0.32626835    -0.07500
C1631       C  0.59272777  0.44980179  0.36410706    -0.02100
C1632       C  0.61015052  0.47506059  0.38615567     0.04700
N1633       N  0.60110800  0.47963033  0.42469500     0.67300
H1634       H  0.64845909  0.51644251  0.38630289     0.16200
H1635       H  0.58828541  0.42692218  0.30867684     0.15900
N1636       N  0.63452480  0.46421981  0.26840679     0.75000
O1637       O  0.61041949  0.47436112  0.45681138    -0.38500
O1638       O  0.58658874  0.49200663  0.42668103    -0.38400
O1639       O  0.63913565  0.44402207  0.26038675    -0.39100
O1640       O  0.63196821  0.47842727  0.23977497    -0.39200
C1641       C  0.74517597  0.64618048  0.41675619    -0.11500
C1642       C  0.76467939  0.64903805  0.38643362     0.05500
C1643       C  0.79287087  0.67318456  0.38760868    -0.06800
C1644       C  0.80082595  0.69356791  0.41859282    -0.07500
C1645       C  0.78139365  0.69033542  0.44909877    -0.02100
C1646       C  0.75308072  0.66654117  0.44777251     0.04700
N1647       N  0.73184142  0.66317124  0.47688285     0.67300
H1648       H  0.72336524  0.62821175  0.41605025     0.16200
H1649       H  0.82263642  0.71156021  0.41950057     0.15900
N1650       N  0.81375752  0.67749364  0.35763050     0.75000
O1651       O  0.72852849  0.68415722  0.48530763    -0.38500
O1652       O  0.71411572  0.63850877  0.49047700    -0.38400
O1653       O  0.81900803  0.69513508  0.32903707    -0.39100
O1654       O  0.82994859  0.66720567  0.36322448    -0.39200
C1655       C  0.68447622  0.66237470  0.25803969    -0.11500
C1656       C  0.67108880  0.63352020  0.24622934     0.05500
C1657       C  0.64205734  0.61905236  0.23460744    -0.06800
C1658       C  0.62676112  0.63366544  0.23481071    -0.07500
C1659       C  0.64003003  0.66257989  0.24684070    -0.02100
C1660       C  0.66920773  0.67700436  0.25846656     0.04700
N1661       N  0.68390276  0.70676590  0.26922423     0.67300
H1662       H  0.70681794  0.67351979  0.26718431     0.16200
H1663       H  0.60444292  0.62237504  0.22557845     0.15900
N1664       N  0.62802136  0.58965339  0.22209858     0.75000
O1665       O  0.68958858  0.71399807  0.30593760    -0.38500
O1666       O  0.69420570  0.72577443  0.24181725    -0.38400
O1667       O  0.60839437  0.57042595  0.24371096    -0.39100
O1668       O  0.63327433  0.58327807  0.18764818    -0.39200
C1669       C  0.84149619  0.54763387  0.29781408    -0.11500
C1670       C  0.83321026  0.52613168  0.32774063     0.05500
C1671       C  0.80382331  0.50989081  0.33863918    -0.06800
C1672       C  0.78392792  0.51622474  0.32091390    -0.07500
C1673       C  0.79285834  0.53880274  0.29290823    -0.02100
C1674       C  0.82176248  0.55415880  0.28074391     0.04700
N1675       N  0.83157489  0.57722627  0.25202001     0.67300
H1676       H  0.86369814  0.56033281  0.28842187     0.16200
H1677       H  0.76180668  0.50468033  0.33098678     0.15900
N1678       N  0.79401633  0.48803867  0.36916749     0.75000
O1679       O  0.84829525  0.60277654  0.26321123    -0.38500
O1680       O  0.82623012  0.57176892  0.21478053    -0.38400
O1681       O  0.79192066  0.49413635  0.40543903    -0.39100
O1682       O  0.78353309  0.46207313  0.35902384    -0.39200
C1683       C  0.20291059  0.71994197  0.14750667    -0.11500
C1684       C  0.18062641  0.70169007  0.17373833     0.05500
C1685       C  0.18310860  0.70826317  0.21545161    -0.06800
C1686       C  0.20681954  0.73398377  0.22949894    -0.07500
C1687       C  0.22806836  0.75336613  0.20248104    -0.02100
C1688       C  0.22671995  0.74525349  0.16140209     0.04700
N1689       N  0.24918904  0.76259313  0.13325213     0.67300
H1690       H  0.20178008  0.71448624  0.11569277     0.16200
H1691       H  0.20741427  0.73978575  0.26104229     0.15900
N1692       N  0.16066379  0.69048931  0.24319170     0.75000
O1693       O  0.27491389  0.77037122  0.14175150    -0.38500
O1694       O  0.24314667  0.76788107  0.09841965    -0.38400
O1695       O  0.16613772  0.68006459  0.27397797    -0.39100
O1696       O  0.13616625  0.68783306  0.23942609    -0.39200
C1697       C  0.02962546  0.55821876  0.24934603    -0.11500
C1698       C  0.02665167  0.57375398  0.21725322     0.05500
C1699       C  0.00140282  0.57548797  0.21489586    -0.06800
C1700       C  0.98013359  0.56228533  0.24446907    -0.07500
C1701       C  0.98312598  0.54712190  0.27697623    -0.02100
C1702       C  0.00797612  0.54457128  0.27875520     0.04700
N1703       N  0.01171255  0.52841578  0.31024473     0.67300
H1704       H  0.04846463  0.55601665  0.25103640     0.16200
H1705       H  0.96132129  0.56451347  0.24232020     0.15900
N1706       N  0.99714345  0.59109139  0.18302005     0.75000
O1707       O  0.00154884  0.50171979  0.30595193    -0.38500
O1708       O  0.02832548  0.54129750  0.33955699    -0.38400
O1709       O  0.97492168  0.57866143  0.16121236    -0.39100
O1710       O  0.01395943  0.61785433  0.17931863    -0.39200
C1711       C  0.89848422  0.80928082  0.98445819    -0.11500
C1712       C  0.90316072  0.80842077  0.02600271     0.05500
C1713       C  0.88640932  0.81344871  0.05377803    -0.06800
C1714       C  0.86305943  0.81583151  0.03961283    -0.07500
C1715       C  0.85680716  0.81407328  0.99787137    -0.02100
C1716       C  0.87608704  0.81275807  0.97009711     0.04700
N1717       N  0.87288385  0.81426612  0.92714227     0.67300
H1718       H  0.91180611  0.80616373  0.96292661     0.16200
H1719       H  0.84898375  0.81750623  0.06136683     0.15900
N1720       N  0.89130265  0.81360771  0.09641768     0.75000
O1721       O  0.87144578  0.83509004  0.91203926    -0.38500
O1722       O  0.87472753  0.79666942  0.90399204    -0.38400
O1723       O  0.91235744  0.83516877  0.11256374    -0.39100
O1724       O  0.87506703  0.79192702  0.11782453    -0.39200
C1725       C  0.05149255  0.84748066  0.95582255    -0.11500
C1726       C  0.04393061  0.84884252  0.99613245     0.05500
C1727       C  0.06164096  0.87371833  0.01908588    -0.06800
C1728       C  0.08765394  0.89516592  0.00297969    -0.07500
C1729       C  0.09655725  0.89247539  0.96413595    -0.02100
C1730       C  0.07752483  0.86903347  0.93959819     0.04700
N1731       N  0.08520761  0.86543376  0.89948685     0.67300
H1732       H  0.03784577  0.82884068  0.93744038     0.16200
H1733       H  0.10173266  0.91324322  0.02200179     0.15900
N1734       N  0.05518363  0.87619578  0.06031498     0.75000
O1735       O  0.10193443  0.85574243  0.89453249    -0.38500
O1736       O  0.07190017  0.86760014  0.86939707    -0.38400
O1737       O  0.06383562  0.86627401  0.08815055    -0.39100
O1738       O  0.04576628  0.89267563  0.06920281    -0.39200
C1739       C  0.84271642  0.68534864  0.12184811    -0.11500
C1740       C  0.86846090  0.68701403  0.13449919     0.05500
C1741       C  0.86830308  0.67212901  0.16995597    -0.06800
C1742       C  0.84305758  0.65671421  0.19218443    -0.07500
C1743       C  0.81735689  0.65511814  0.17973548    -0.02100
C1744       C  0.81734051  0.66973917  0.14410325     0.04700
N1745       N  0.79214559  0.66982801  0.13073272     0.67300
H1746       H  0.84230250  0.69679906  0.09501347     0.16200
H1747       H  0.84357388  0.64530501  0.21898477     0.15900
N1748       N  0.89336258  0.67191428  0.18367020     0.75000
O1749       O  0.78304835  0.68360652  0.15052448    -0.38500
O1750       O  0.78161574  0.65989253  0.09629387    -0.38400
O1751       O  0.90511911  0.68393230  0.21667052    -0.39100
O1752       O  0.90121850  0.65632559  0.16593582    -0.39200
C1753       C  0.00042530  0.67638069  0.07967277    -0.11500
C1754       C  0.01696285  0.70625863  0.07493724     0.05500
C1755       C  0.04678210  0.71920039  0.06965321    -0.06800
C1756       C  0.05963436  0.70222173  0.07036713    -0.07500
C1757       C  0.04319695  0.67209656  0.07530772    -0.02100
C1758       C  0.01292776  0.65904742  0.07877835     0.04700
N1759       N  0.99430074  0.62844299  0.08058262     0.67300
H1760       H  0.97731755  0.66625044  0.08229713     0.16200
H1761       H  0.08274183  0.71285783  0.06736011     0.15900
N1762       N  0.06443097  0.74968224  0.06517978     0.75000
O1763       O  0.97380441  0.61789952  0.10558343    -0.38500
O1764       O  0.99345414  0.61327243  0.05095690    -0.38400
O1765       O  0.07330586  0.76542148  0.09624878    -0.39100
O1766       O  0.07406881  0.76044707  0.03069035    -0.39200
C1767       C  0.84373248  0.52119812  0.59402851    -0.11500
C1768       C  0.86268446  0.52363719  0.62540703     0.05500
C1769       C  0.88526051  0.51841959  0.61580913    -0.06800
C1770       C  0.88981956  0.51356655  0.57567608    -0.07500
C1771       C  0.87203691  0.51287041  0.54417152    -0.02100
C1772       C  0.84803830  0.51551317  0.55371298     0.04700
N1773       N  0.82918644  0.51464240  0.52248730     0.67300
H1774       H  0.82614448  0.52481122  0.60040732     0.16200
H1775       H  0.90815668  0.51121447  0.56884851     0.15900
N1776       N  0.90477765  0.51928876  0.64599139     0.75000
O1777       O  0.81135857  0.49090514  0.50668359    -0.38500
O1778       O  0.82810533  0.53693669  0.51392281    -0.38400
O1779       O  0.89700494  0.49835398  0.67006763    -0.39100
O1780       O  0.93080505  0.53889544  0.64481009    -0.39200
C1781       C  0.75646087  0.52512226  0.84584362    -0.11500
C1782       C  0.76260570  0.52993375  0.80420393     0.05500
C1783       C  0.74117228  0.52846236  0.77777134    -0.06800
C1784       C  0.71535447  0.52459228  0.79373587    -0.07500
C1785       C  0.71046019  0.52227749  0.83575517    -0.02100
C1786       C  0.73070601  0.52106245  0.86174923     0.04700
N1787       N  0.72556299  0.51597412  0.90447713     0.67300
H1788       H  0.77204407  0.52506109  0.86656419     0.16200
H1789       H  0.69994211  0.52531273  0.77336745     0.15900
N1790       N  0.74598487  0.53294694  0.73507774     0.75000
O1791       O  0.70298026  0.49408040  0.91700801    -0.38500
O1792       O  0.74468702  0.53183146  0.92963503    -0.38400
O1793       O  0.73384675  0.51183482  0.71125053    -0.39100
O1794       O  0.75873061  0.55820649  0.72089918    -0.39200
C1795       C  0.81845815  0.63427431  0.67202918    -0.11500
C1796       C  0.84724613  0.64325336  0.68083222     0.05500
C1797       C  0.86834901  0.67236265  0.67368514    -0.06800
C1798       C  0.86005987  0.69166018  0.65979979    -0.07500
C1799       C  0.83132778  0.68278526  0.65110297    -0.02100
C1800       C  0.81026977  0.65357567  0.65751352     0.04700
N1801       N  0.78045322  0.64354144  0.65126147     0.67300
H1802       H  0.80165109  0.61192725  0.67803940     0.16200
H1803       H  0.87691132  0.71413471  0.65408874     0.15900
N1804       N  0.89829448  0.68231673  0.67867237     0.75000
O1805       O  0.76634023  0.62394808  0.62576424    -0.38500
O1806       O  0.76747504  0.65164701  0.67466164    -0.38400
O1807       O  0.90988272  0.67117843  0.65818813    -0.39100
O1808       O  0.91385684  0.70457203  0.69933674    -0.39200
C1809       C  0.92808455  0.67080515  0.87548324    -0.11500
C1810       C  0.90180719  0.64524152  0.88239675     0.05500
C1811       C  0.88753566  0.64190590  0.91952082    -0.06800
C1812       C  0.89910458  0.66433237  0.94798333    -0.07500
C1813       C  0.92504060  0.69015806  0.94054493    -0.02100
C1814       C  0.93984421  0.69295587  0.90414675     0.04700
N1815       N  0.96641277  0.71848748  0.89518621     0.67300
H1816       H  0.93970727  0.67370840  0.84747602     0.16200
H1817       H  0.88762259  0.66152517  0.97608940     0.15900
N1818       N  0.86086129  0.61640541  0.92826870     0.75000
O1819       O  0.98978212  0.71917301  0.90180890    -0.38500
O1820       O  0.96643639  0.73860334  0.87537075    -0.38400
O1821       O  0.85928334  0.60018417  0.95712867    -0.39100
O1822       O  0.83825018  0.61191941  0.91044675    -0.39200
C1823       C  0.97865334  0.77689571  0.23882338    -0.11500
C1824       C  0.99322270  0.79738888  0.20825692     0.05500
C1825       C  0.01650330  0.82459807  0.21920794    -0.06800
C1826       C  0.02570387  0.83008471  0.25998322    -0.07500
C1827       C  0.01212194  0.80865859  0.28980159    -0.02100
C1828       C  0.98776534  0.78232444  0.27913934     0.04700
N1829       N  0.97273625  0.76037247  0.30895505     0.67300
H1830       H  0.96034733  0.75613155  0.23121896     0.16200
H1831       H  0.04493020  0.85009398  0.26763204     0.15900
N1832       N  0.03308724  0.84541656  0.18885595     0.75000
O1833       O  0.95813377  0.76376315  0.33583759    -0.38500
O1834       O  0.97193163  0.73661302  0.30628614    -0.38400
O1835       O  0.03603528  0.87018438  0.19001556    -0.39100
O1836       O  0.04854474  0.84066132  0.16522573    -0.39200
C1837       C  0.12359905  0.91352911  0.50790616    -0.11500
C1838       C  0.11789242  0.91057981  0.46625317     0.05500
C1839       C  0.13381986  0.93432789  0.44035379    -0.06800
C1840       C  0.15630886  0.96011970  0.45653809    -0.07500
C1841       C  0.16350391  0.96222795  0.49804584    -0.02100
C1842       C  0.14586954  0.93890407  0.52406110     0.04700
N1843       N  0.15064470  0.94021545  0.56695514     0.67300
H1844       H  0.11124713  0.89542244  0.52804290     0.16200
H1845       H  0.16941157  0.97774319  0.43612497     0.15900
N1846       N  0.12926656  0.93177973  0.39740946     0.75000
O1847       O  0.14663577  0.95722754  0.58837337    -0.38500
O1848       O  0.15599148  0.92237671  0.58393996    -0.38400
O1849       O  0.12395093  0.94907948  0.37874184    -0.39100
O1850       O  0.13387555  0.91454706  0.37752741    -0.39200
C1851       C  0.96359929  0.79549902  0.53793188    -0.11500
C1852       C  0.97158867  0.80663059  0.49839631     0.05500
C1853       C  0.95425077  0.81510913  0.47729439    -0.06800
C1854       C  0.92862823  0.81053017  0.49465574    -0.07500
C1855       C  0.91966516  0.79767094  0.53310346    -0.02100
C1856       C  0.93793011  0.79092333  0.55539780     0.04700
N1857       N  0.92968748  0.77712968  0.59420810     0.67300
H1858       H  0.97671068  0.78904248  0.55475217     0.16200
H1859       H  0.91507663  0.81607997  0.47715228     0.15900
N1860       N  0.96112330  0.82632031  0.43692933     0.75000
O1861       O  0.90945596  0.75137472  0.59664172    -0.38500
O1862       O  0.94556101  0.78877965  0.62465320    -0.38400
O1863       O  0.95152642  0.80942462  0.40710457    -0.39100
O1864       O  0.97350778  0.85312779  0.43105173    -0.39200
C1865       C  0.17793592  0.83928121  0.29566502    -0.11500
C1866       C  0.19933812  0.83802274  0.31833738     0.05500
C1867       C  0.19348042  0.82720476  0.35823623    -0.06800
C1868       C  0.16678699  0.81878919  0.37537154    -0.07500
C1869       C  0.14549055  0.82038914  0.35298385    -0.02100
C1870       C  0.15096442  0.83043512  0.31262605     0.04700
N1871       N  0.12992321  0.83294587  0.28923260     0.67300
H1872       H  0.18221829  0.84718964  0.26471201     0.16200
H1873       H  0.16271605  0.81115153  0.40647114     0.15900
N1874       N  0.21473567  0.82548759  0.38207675     0.75000
O1875       O  0.12050913  0.84882142  0.30137056    -0.38500
O1876       O  0.12283680  0.82158973  0.25458317    -0.38400
O1877       O  0.23303130  0.84719200  0.40157552    -0.39100
O1878       O  0.21302836  0.80147405  0.38763693    -0.39200
C1879       C  0.98804445  0.67735672  0.44963317    -0.11500
C1880       C  0.99912033  0.69340416  0.41366067     0.05500
C1881       C  0.99453792  0.67850379  0.37664340    -0.06800
C1882       C  0.97871209  0.64836940  0.37636465    -0.07500
C1883       C  0.96788402  0.63243979  0.41237550    -0.02100
C1884       C  0.97254070  0.64722827  0.44934358     0.04700
N1885       N  0.96079866  0.63207204  0.48662223     0.67300
H1886       H  0.99122285  0.68825756  0.47835669     0.16200
H1887       H  0.97562445  0.63733649  0.34777028     0.15900
N1888       N  0.00562527  0.69339179  0.33902218     0.75000
O1889       O  0.97699997  0.63637631  0.51668875    -0.38500
O1890       O  0.93394882  0.61680133  0.49088603    -0.38400
O1891       O  0.03196742  0.70415593  0.33122101    -0.39100
O1892       O  0.98851105  0.68987855  0.31050476    -0.39200
C1893       C  0.15593252  0.66159732  0.88902310    -0.11500
C1894       C  0.15554015  0.68705573  0.88154641     0.05500
C1895       C  0.15212604  0.70173768  0.91433151    -0.06800
C1896       C  0.14769592  0.69013228  0.95333508    -0.07500
C1897       C  0.14618470  0.66365752  0.96090999    -0.02100
C1898       C  0.15113047  0.64970365  0.92827085     0.04700
N1899       N  0.14965721  0.62267893  0.93378384     0.67300
H1900       H  0.15830552  0.65001646  0.86397648     0.16200
H1901       H  0.14443504  0.70166409  0.97759806     0.15900
N1902       N  0.15250290  0.72827173  0.90832352     0.75000
O1903       O  0.12767407  0.59989971  0.92215912    -0.38500
O1904       O  0.17187955  0.62204337  0.94393600    -0.38400
O1905       O  0.13057596  0.72994489  0.91652997    -0.39100
O1906       O  0.17553999  0.75066956  0.89841395    -0.39200
C1907       C  0.29555623  0.82620529  0.70883962    -0.11500
C1908       C  0.30842419  0.82054741  0.67585603     0.05500
C1909       C  0.29556344  0.79196804  0.66113974    -0.06800
C1910       C  0.26893993  0.77072992  0.67670415    -0.07500
C1911       C  0.25539960  0.77738807  0.70738017    -0.02100
C1912       C  0.26935018  0.80500325  0.72451640     0.04700
N1913       N  0.25598694  0.81235159  0.75595184     0.67300
H1914       H  0.30510639  0.84762238  0.72150290     0.16200
H1915       H  0.25812103  0.74948641  0.66329539     0.15900
N1916       N  0.30835010  0.78445674  0.62914967     0.75000
O1917       O  0.25430218  0.80270367  0.79142099    -0.38500
O1918       O  0.24734196  0.82977558  0.74885110    -0.38400
O1919       O  0.33008306  0.78217743  0.63641538    -0.39100
O1920       O  0.29568056  0.77615983  0.59545220    -0.39200
C1921       C  0.02412218  0.63182897  0.73803188    -0.11500
C1922       C  0.03835112  0.66029437  0.75215411     0.05500
C1923       C  0.02203049  0.67229689  0.76604384    -0.06800
C1924       C  0.99206678  0.65601971  0.76467285    -0.07500
C1925       C  0.97778502  0.62760266  0.75014068    -0.02100
C1926       C  0.99416224  0.61532080  0.73736895     0.04700
N1927       N  0.98089928  0.58658999  0.72214286     0.67300
H1928       H  0.03635455  0.62224950  0.72735444     0.16200
H1929       H  0.97991630  0.66577134  0.77501599     0.15900
N1930       N  0.03547634  0.70143371  0.77957131     0.75000
O1931       O  0.98432623  0.58256757  0.68541160    -0.38500
O1932       O  0.97165916  0.56576928  0.74675585    -0.38400
O1933       O  0.04015303  0.72120506  0.75467239    -0.39100
O1934       O  0.03886119  0.70684353  0.81703992    -0.39200
C1935       C  0.07555577  0.74575140  0.56764997    -0.11500
C1936       C  0.09242222  0.77399206  0.55304778     0.05500
C1937       C  0.12080873  0.79093354  0.56757186    -0.06800
C1938       C  0.13166598  0.77951450  0.59597377    -0.07500
C1939       C  0.11482154  0.75132428  0.61083161    -0.02100
C1940       C  0.08632538  0.73433088  0.59641576     0.04700
N1941       N  0.06764659  0.70585179  0.61151474     0.67300
H1942       H  0.05383741  0.73234657  0.55659492     0.16200
H1943       H  0.15343713  0.79303393  0.60676596     0.15900
N1944       N  0.13877291  0.82005754  0.55452978     0.75000
O1945       O  0.05882173  0.70225683  0.64767349    -0.38500
O1946       O  0.05639703  0.68494702  0.58721710    -0.38400
O1947       O  0.13632151  0.83986887  0.57078979    -0.39100
O1948       O  0.15944130  0.82638028  0.53080252    -0.39200
C1949       C  0.17469706  0.81427102  0.84736439    -0.11500
C1950       C  0.16786885  0.81225429  0.80595862     0.05500
C1951       C  0.17049725  0.83646186  0.78537060    -0.06800
C1952       C  0.17861532  0.86180406  0.80675294    -0.07500
C1953       C  0.18537727  0.86378936  0.84814581    -0.02100
C1954       C  0.18385548  0.83998450  0.86840870     0.04700
N1955       N  0.19038662  0.84125854  0.91066954     0.67300
H1956       H  0.17317841  0.79594916  0.86327037     0.16200
H1957       H  0.17967772  0.87997984  0.79100077     0.15900
N1958       N  0.16415285  0.83533042  0.74306452     0.75000
O1959       O  0.17160462  0.83718229  0.93669837    -0.38500
O1960       O  0.21370357  0.84329608  0.92191146    -0.38400
O1961       O  0.13922532  0.82872160  0.73173515    -0.39100
O1962       O  0.18425923  0.84479794  0.71748435    -0.39200
C1963       C  0.28850300  0.48271300  0.14003887    -0.11500
C1964       C  0.30525516  0.47519762  0.16415613     0.05500
C1965       C  0.29589375  0.46488876  0.20391627    -0.06800
C1966       C  0.26984189  0.46138831  0.21816882    -0.07500
C1967       C  0.25249794  0.46776107  0.19343111    -0.02100
C1968       C  0.26237011  0.47912781  0.15416199     0.04700
N1969       N  0.24607520  0.48698797  0.12816532     0.67300
H1970       H  0.29537004  0.49076277  0.10951585     0.16200
H1971       H  0.26260116  0.45249363  0.24824306     0.15900
N1972       N  0.31248403  0.45768267  0.23015127     0.75000
O1973       O  0.23853150  0.50434904  0.14043466    -0.38500
O1974       O  0.24135025  0.47859335  0.09179776    -0.38400
O1975       O  0.33454959  0.47739033  0.24737237    -0.39100
O1976       O  0.30336528  0.43175644  0.23966373    -0.39200
C1977       C  0.14705909  0.51297369  0.12432723    -0.11500
C1978       C  0.14851017  0.50937134  0.16633711     0.05500
C1979       C  0.14973648  0.53059994  0.19270186    -0.06800
C1980       C  0.14706202  0.55326793  0.17728535    -0.07500
C1981       C  0.14316831  0.55572658  0.13570316    -0.02100
C1982       C  0.14441017  0.53593183  0.10880944     0.04700
N1983       N  0.14115599  0.53765561  0.06603304     0.67300
H1984       H  0.14640884  0.49711665  0.10359739     0.16200
H1985       H  0.14698967  0.56851993  0.19852007     0.15900
N1986       N  0.15261151  0.52895684  0.23563663     0.75000
O1987       O  0.16294545  0.55272052  0.04428165    -0.38500
O1988       O  0.11719464  0.52149191  0.04945818    -0.38400
O1989       O  0.17590428  0.53293785  0.25051072    -0.39100
O1990       O  0.13290781  0.52637811  0.25885500    -0.39200
C1991       C  0.15734599  0.31551861  0.36405405    -0.11500
C1992       C  0.18580848  0.32137281  0.36197653     0.05500
C1993       C  0.20639818  0.34599366  0.34075078    -0.06800
C1994       C  0.19806618  0.36395009  0.32173290    -0.07500
C1995       C  0.16957642  0.35797780  0.32377743    -0.02100
C1996       C  0.14913295  0.33358292  0.34535512     0.04700
N1997       N  0.12022066  0.32742373  0.34974974     0.67300
H1998       H  0.14130764  0.29679273  0.38043331     0.16200
H1999       H  0.21398141  0.38268944  0.30524596     0.15900
N2000       N  0.23593341  0.35364967  0.33946811     0.75000
O2001       O  0.09984540  0.30485779  0.33448351    -0.38500
O2002       O  0.11481102  0.34285685  0.37252193    -0.38400
O2003       O  0.24862588  0.35824221  0.30581267    -0.39100
O2004       O  0.25024620  0.35937505  0.37191886    -0.39200
C2005       C  0.14093154  0.20101098  0.94317409    -0.11500
C2006       C  0.11647891  0.19222459  0.96700851     0.05500
C2007       C  0.11413794  0.17873292  0.00453445    -0.06800
C2008       C  0.13706392  0.17593649  0.01896773    -0.07500
C2009       C  0.16259700  0.18665276  0.99647177    -0.02100
C2010       C  0.16383253  0.19807062  0.95720038     0.04700
N2011       N  0.18847838  0.20765746  0.93172178     0.67300
H2012       H  0.14285214  0.21156122  0.91432580     0.16200
H2013       H  0.13547637  0.16694006  0.04895099     0.15900
N2014       N  0.08952718  0.16988300  0.02963463     0.75000
O2015       O  0.19570462  0.18998858  0.91976311    -0.38500
O2016       O  0.20128098  0.23301730  0.91787790    -0.38400
O2017       O  0.06699789  0.14607973  0.02333257    -0.39100
O2018       O  0.09083372  0.18500483  0.05957426    -0.39200
C2019       C  0.93845609  0.12927742  0.06069519    -0.11500
C2020       C  0.91849202  0.10833036  0.03434948     0.05500
C2021       C  0.92567559  0.10885284  0.99316517    -0.06800
C2022       C  0.95217432  0.13084328  0.97869786    -0.07500
C2023       C  0.97160960  0.15279356  0.00448959    -0.02100
C2024       C  0.96482653  0.15152711  0.04609461     0.04700
N2025       N  0.98413467  0.17308244  0.07365346     0.67300
H2026       H  0.93283682  0.12939872  0.09218604     0.16200
H2027       H  0.95696990  0.13149796  0.94669028     0.15900
N2028       N  0.90561422  0.08795895  0.96535805     0.75000
O2029       O  0.97961646  0.19288938  0.08448477    -0.38500
O2030       O  0.00301320  0.16990692  0.09166437    -0.38400
O2031       O  0.89871912  0.09596133  0.93333789    -0.39100
O2032       O  0.89591425  0.06149383  0.97169246    -0.39200
C2033       C  0.08789165  0.29964995  0.09961188    -0.11500
C2034       C  0.09687928  0.30809087  0.05971426     0.05500
C2035       C  0.11630454  0.33731919  0.05120842    -0.06800
C2036       C  0.12581037  0.35769217  0.08246473    -0.07500
C2037       C  0.11685447  0.34945452  0.12280267    -0.02100
C2038       C  0.09821674  0.31962861  0.13137597     0.04700
N2039       N  0.08996898  0.30882125  0.17192391     0.67300
H2040       H  0.07345201  0.27709834  0.10637249     0.16200
H2041       H  0.14007147  0.38012366  0.07491684     0.15900
N2042       N  0.12540378  0.34683937  0.01056390     0.75000
O2043       O  0.06394717  0.29110017  0.17954800    -0.38500
O2044       O  0.10888025  0.31094929  0.19659118    -0.38400
O2045       O  0.11008467  0.35234149  0.98747723    -0.39100
O2046       O  0.14991461  0.35232465  0.99898175    -0.39200
C2047       C  0.20047126  0.33399698  0.84455741    -0.11500
C2048       C  0.19971812  0.35170222  0.81379623     0.05500
C2049       C  0.17325720  0.35023767  0.80513079    -0.06800
C2050       C  0.14848542  0.33106075  0.82664937    -0.07500
C2051       C  0.14924778  0.31336807  0.85743155    -0.02100
C2052       C  0.17569921  0.31476947  0.86601606     0.04700
N2053       N  0.17777658  0.29617434  0.89532916     0.67300
H2054       H  0.22031861  0.33441973  0.85137797     0.16200
H2055       H  0.12863293  0.33062204  0.81980666     0.15900
N2056       N  0.17114425  0.36860584  0.77548424     0.75000
O2057       O  0.16532897  0.26945634  0.88882740    -0.38500
O2058       O  0.19563597  0.30676487  0.92401859    -0.38400
O2059       O  0.15452622  0.35776831  0.74550820    -0.39100
O2060       O  0.18245103  0.39519134  0.78237369    -0.39200
C2061       C  0.16632773  0.46439843  0.40840801    -0.11500
C2062       C  0.15470704  0.47270813  0.37653698     0.05500
C2063       C  0.13999262  0.48745310  0.38604606    -0.06800
C2064       C  0.13628067  0.49256734  0.42665626    -0.07500
C2065       C  0.14618007  0.48246844  0.45854000    -0.02100
C2066       C  0.16192466  0.46880609  0.44902344     0.04700
N2067       N  0.17290622  0.45851549  0.48028308     0.67300
H2068       H  0.17759753  0.45298857  0.40192358     0.16200
H2069       H  0.12402249  0.50294926  0.43322480     0.15900
N2070       N  0.12816063  0.49692871  0.35492688     0.75000
O2071       O  0.16079643  0.43189283  0.48764543    -0.38500
O2072       O  0.19683921  0.47542164  0.49637145    -0.38400
O2073       O  0.10212499  0.48127666  0.34514865    -0.39100
O2074       O  0.14147648  0.52303232  0.34433660    -0.39200
C2075       C  0.14276942  0.58303987  0.68683376    -0.11500
C2076       C  0.14099500  0.57812794  0.64471459     0.05500
C2077       C  0.14372509  0.60019044  0.61829467    -0.06800
C2078       C  0.14613093  0.62540860  0.63427081    -0.07500
C2079       C  0.14656177  0.62952027  0.67628327    -0.02100
C2080       C  0.14517142  0.60821828  0.70277328     0.04700
N2081       N  0.14363658  0.61067990  0.74586347     0.67300
H2082       H  0.14060057  0.56651561  0.70781125     0.16200
H2083       H  0.14754865  0.64183585  0.61370921     0.15900
N2084       N  0.14323627  0.59708518  0.57522944     0.75000
O2085       O  0.12347363  0.61300650  0.76106550    -0.38500
O2086       O  0.16012840  0.60686096  0.76893686    -0.38400
O2087       O  0.12110184  0.59184732  0.55537428    -0.39100
O2088       O  0.16606362  0.60331226  0.55664622    -0.39200
C2089       C  0.21441804  0.47517613  0.72510276    -0.11500
C2090       C  0.23242915  0.47201238  0.69767082     0.05500
C2091       C  0.22799298  0.47285324  0.65573267    -0.06800
C2092       C  0.20420360  0.47409329  0.64189736    -0.07500
C2093       C  0.18454367  0.47473618  0.66908747    -0.02100
C2094       C  0.19032938  0.47632702  0.71124416     0.04700
N2095       N  0.17076544  0.47635892  0.74044425     0.67300
H2096       H  0.21739920  0.47388020  0.75740203     0.16200
H2097       H  0.20080404  0.47394647  0.60946449     0.15900
N2098       N  0.24683752  0.47103815  0.62690113     0.75000
O2099       O  0.14550292  0.45520014  0.74259835    -0.38500
O2100       O  0.17997653  0.49500085  0.76817671    -0.38400
O2101       O  0.23674345  0.45309832  0.59829594    -0.39100
O2102       O  0.27354221  0.48830977  0.62887502    -0.39200
C2103       C  0.03323758  0.52181980  0.52199096    -0.11500
C2104       C  0.03008875  0.49445967  0.51743298     0.05500
C2105       C  0.00728916  0.47357057  0.49395426    -0.06800
C2106       C  0.98798210  0.48031359  0.47582148    -0.07500
C2107       C  0.99103074  0.50770490  0.48009454    -0.02100
C2108       C  0.01376667  0.52850003  0.50396099     0.04700
N2109       N  0.01766434  0.55653843  0.50975541     0.67300
H2110       H  0.05054708  0.53789279  0.54037528     0.16200
H2111       H  0.97076865  0.46407840  0.45750261     0.15900
N2112       N  0.00424465  0.44592594  0.48665450     0.75000
O2113       O  0.00469700  0.56076940  0.53825556    -0.38500
O2114       O  0.03722088  0.57774436  0.49072292    -0.38400
O2115       O  0.98000373  0.42340211  0.49010451    -0.39100
O2116       O  0.02499489  0.44420219  0.47239233    -0.39200
C2117       C  0.86997371  0.46073987  0.89554090    -0.11500
C2118       C  0.87337934  0.44239735  0.86893618     0.05500
C2119       C  0.87208089  0.44606724  0.82685739    -0.06800
C2120       C  0.86954369  0.46898292  0.81191778    -0.07500
C2121       C  0.86820301  0.48876330  0.83816391    -0.02100
C2122       C  0.86745753  0.48393470  0.88051907     0.04700
N2123       N  0.86693987  0.50378397  0.90863737     0.67300
H2124       H  0.87169524  0.45855129  0.92795666     0.16200
H2125       H  0.86938918  0.47169945  0.77934405     0.15900
N2126       N  0.87478324  0.42736890  0.79884827     0.75000
O2127       O  0.84569531  0.49572226  0.93190049    -0.38500
O2128       O  0.88923984  0.52793009  0.91415442    -0.38400
O2129       O  0.85439180  0.40186703  0.79450693    -0.39100
O2130       O  0.89640341  0.43702161  0.77593323    -0.39200
C2131       C  0.83455806  0.28882981  0.80171438    -0.11500
C2132       C  0.83195215  0.29717793  0.84105718     0.05500
C2133       C  0.80607009  0.28013913  0.86249151    -0.06800
C2134       C  0.78421705  0.25471033  0.84523555    -0.07500
C2135       C  0.78757197  0.24554964  0.80690412    -0.02100
C2136       C  0.81276322  0.26332928  0.78460472     0.04700
N2137       N  0.81780213  0.25449906  0.74623242     0.67300
H2138       H  0.85410961  0.30161857  0.78457735     0.16200
H2139       H  0.76510718  0.24125663  0.86291780     0.15900
N2140       N  0.80271100  0.28662509  0.90335920     0.75000
O2141       O  0.81240545  0.26356013  0.71394922    -0.38500
O2142       O  0.83125787  0.24101323  0.74463936    -0.38400
O2143       O  0.78319398  0.29205514  0.91202205    -0.39100
O2144       O  0.81541093  0.28151739  0.93148424    -0.39200
C2145       C  0.97559480  0.31477863  0.95748607    -0.11500
C2146       C  0.97105747  0.32366288  0.91951993     0.05500
C2147       C  0.98148722  0.31708330  0.88436605    -0.06800
C2148       C  0.99658560  0.30237381  0.88780891    -0.07500
C2149       C  0.00140222  0.29369307  0.92580978    -0.02100
C2150       C  0.99052842  0.29987383  0.96097602     0.04700
N2151       N  0.99523409  0.29206654  0.00059962     0.67300
H2152       H  0.96768350  0.31961787  0.98471894     0.16200
H2153       H  0.00457456  0.29773151  0.86048982     0.15900
N2154       N  0.97789635  0.32613272  0.84503074     0.75000
O2155       O  0.01992270  0.30540120  0.01631785    -0.38500
O2156       O  0.97418944  0.27416943  0.02162494    -0.38400
O2157       O  0.99634497  0.35058426  0.83167197    -0.39100
O2158       O  0.95844793  0.30840299  0.82175144    -0.39200
C2159       C  0.98165565  0.40274247  0.74678883    -0.11500
C2160       C  0.98660094  0.41969171  0.78140444     0.05500
C2161       C  0.01294838  0.44601395  0.78470482    -0.06800
C2162       C  0.03346398  0.45477534  0.75373655    -0.07500
C2163       C  0.02832311  0.43795409  0.71897171    -0.02100
C2164       C  0.00216869  0.41145568  0.71583362     0.04700
N2165       N  0.99658520  0.39254433  0.68224070     0.67300
H2166       H  0.96188383  0.38229609  0.74397230     0.16200
H2167       H  0.05332334  0.47513923  0.75661364     0.15900
N2168       N  0.01961879  0.46381214  0.81975893     0.75000
O2169       O  0.01323088  0.38302600  0.67515819    -0.38500
O2170       O  0.97338794  0.38270989  0.66267106    -0.38400
O2171       O  0.03445406  0.46192564  0.84795766    -0.39100
O2172       O  0.01446644  0.48420435  0.81976662    -0.39200
C2173       C  0.01819850  0.49487199  0.95882412    -0.11500
C2174       C  0.99683800  0.47213858  0.98162068     0.05500
C2175       C  0.99391122  0.47594636  0.02317362    -0.06800
C2176       C  0.01130608  0.50294608  0.04072871    -0.07500
C2177       C  0.03217122  0.52590920  0.01758141    -0.02100
C2178       C  0.03616078  0.52154734  0.97663587     0.04700
N2179       N  0.05780276  0.54419842  0.95251609     0.67300
H2180       H  0.02067129  0.49199005  0.92687398     0.16200
H2181       H  0.00869876  0.50594016  0.07258038     0.15900
N2182       N  0.97274171  0.45297536  0.04742204     0.75000
O2183       O  0.07845196  0.54195255  0.93915625    -0.38500
O2184       O  0.05407600  0.56418628  0.93967223    -0.38400
O2185       O  0.98020318  0.44001324  0.07218935    -0.39100
O2186       O  0.94712302  0.44758088  0.04708431    -0.39200
C2187       C  0.98142011  0.17152330  0.74487824    -0.11500
C2188       C  0.00003623  0.18596887  0.71215174     0.05500
C2189       C  0.02948285  0.20520707  0.72065820    -0.06800
C2190       C  0.03893080  0.21139544  0.76093015    -0.07500
C2191       C  0.02007861  0.19807705  0.79337693    -0.02100
C2192       C  0.99123764  0.17746117  0.78526544     0.04700
N2193       N  0.97116193  0.16448373  0.81769248     0.67300
H2194       H  0.95880058  0.15693810  0.73932917     0.16200
H2195       H  0.06122974  0.22704894  0.76698770     0.15900
N2196       N  0.05008362  0.21904533  0.68884670     0.75000
O2197       O  0.95964829  0.17757739  0.83316009    -0.38500
O2198       O  0.96286149  0.13890268  0.82819858    -0.38400
O2199       O  0.06645834  0.24601083  0.68895396    -0.39100
O2200       O  0.05383107  0.20411730  0.66286125    -0.39200
C2201       C  0.87473912  0.04989903  0.47757745    -0.11500
C2202       C  0.85109523  0.03289143  0.50267941     0.05500
C2203       C  0.85149829  0.04172348  0.54308908    -0.06800
C2204       C  0.87445003  0.06788436  0.55675099    -0.07500
C2205       C  0.89729334  0.08572660  0.53088464    -0.02100
C2206       C  0.89775694  0.07605108  0.49122920     0.04700
N2207       N  0.92117395  0.09272528  0.46419868     0.67300
H2208       H  0.87498325  0.04335098  0.44663454     0.16200
H2209       H  0.87367408  0.07483619  0.58726139     0.15900
N2210       N  0.82856767  0.02461750  0.57049727     0.75000
O2211       O  0.94626597  0.09878754  0.47377963    -0.38500
O2212       O  0.91648791  0.09932062  0.42936528    -0.38400
O2213       O  0.82651665  0.00216978  0.58595271    -0.39100
O2214       O  0.81241057  0.03362437  0.58279096    -0.39200
C2215       C  0.07430917  0.19652639  0.44133567    -0.11500
C2216       C  0.09453076  0.19604902  0.46772315     0.05500
C2217       C  0.08846663  0.19186415  0.50954876    -0.06800
C2218       C  0.06364337  0.19054424  0.52469095    -0.07500
C2219       C  0.04419342  0.19289758  0.49884139    -0.02100
C2220       C  0.04925838  0.19514114  0.45649318     0.04700
N2221       N  0.03091864  0.19906301  0.42897722     0.67300
H2222       H  0.07928017  0.20076217  0.40934657     0.16200
H2223       H  0.05975813  0.18806116  0.55708644     0.15900
N2224       N  0.10813604  0.19020989  0.53717448     0.75000
O2225       O  0.02794621  0.22075469  0.43235802    -0.38500
O2226       O  0.02106107  0.18328855  0.39805236    -0.38400
O2227       O  0.11660519  0.20589000  0.56833935    -0.39100
O2228       O  0.11570430  0.17180340  0.53174374    -0.39200
C2229       C  0.85479597  0.18861074  0.64299224    -0.11500
C2230       C  0.86458752  0.16898583  0.64682996     0.05500
C2231       C  0.84698050  0.14274287  0.66748942    -0.06800
C2232       C  0.82102782  0.13731266  0.68490212    -0.07500
C2233       C  0.81135614  0.15710196  0.68146869    -0.02100
C2234       C  0.82843042  0.18287381  0.65921481     0.04700
N2235       N  0.81938789  0.20337313  0.65194634     0.67300
H2236       H  0.86748060  0.20856446  0.62649025     0.16200
H2237       H  0.80836102  0.11728852  0.70125821     0.15900
N2238       N  0.85481622  0.12111482  0.67081254     0.75000
O2239       O  0.83668413  0.22976901  0.65800409    -0.38500
O2240       O  0.79705398  0.19609379  0.63126795    -0.38400
O2241       O  0.86208519  0.11591684  0.70479525    -0.39100
O2242       O  0.85022275  0.10435767  0.64146217    -0.39200
C2243       C  0.04435293  0.31678364  0.57989044    -0.11500
C2244       C  0.01505645  0.30202040  0.59026551     0.05500
C2245       C  0.00134572  0.31817376  0.59675088    -0.06800
C2246       C  0.01667684  0.34803622  0.59141792    -0.07500
C2247       C  0.04590850  0.36278372  0.58102094    -0.02100
C2248       C  0.05977580  0.34677572  0.57500995     0.04700
N2249       N  0.08915103  0.36038603  0.56247337     0.67300
H2250       H  0.05525729  0.30492989  0.57408095     0.16200
H2251       H  0.00571761  0.35985852  0.59705453     0.15900
N2252       N  0.97214371  0.30488874  0.61002302     0.75000
O2253       O  0.10693447  0.35677700  0.58283008    -0.38500
O2254       O  0.09651901  0.37299370  0.52853165    -0.38400
O2255       O  0.96540558  0.29348471  0.64479604    -0.39100
O2256       O  0.95430124  0.30867899  0.59013020    -0.39200
C2257       C  0.84426304  0.31126851  0.10010919    -0.11500
C2258       C  0.86354835  0.32540583  0.13201862     0.05500
C2259       C  0.88906158  0.35158423  0.12420821    -0.06800
C2260       C  0.89574227  0.36215954  0.08444282    -0.07500
C2261       C  0.87737399  0.34727480  0.05196871    -0.02100
C2262       C  0.85111550  0.32185304  0.06008170     0.04700
N2263       N  0.83336693  0.30443360  0.02761493     0.67300
H2264       H  0.82515642  0.29063429  0.10563503     0.16200
H2265       H  0.91583647  0.38184584  0.07868943     0.15900
N2266       N  0.90888368  0.36704048  0.15630577     0.75000
O2267       O  0.84230556  0.29172080  0.00514688    -0.38500
O2268       O  0.80725565  0.29737010  0.02629453    -0.38400
O2269       O  0.93539817  0.37668275  0.15155102    -0.39100
O2270       O  0.90010744  0.37244750  0.18867342    -0.39200
C2271       C  0.75389550  0.21941586  0.35073245    -0.11500
C2272       C  0.75902793  0.22104106  0.30887954     0.05500
C2273       C  0.73779968  0.20063140  0.28290799    -0.06800
C2274       C  0.71267243  0.17778611  0.29957415    -0.07500
C2275       C  0.70811102  0.17548951  0.34165168    -0.02100
C2276       C  0.72875050  0.19682392  0.36746516     0.04700
N2277       N  0.72587431  0.19439281  0.41081489     0.67300
H2278       H  0.77056815  0.23456990  0.37083485     0.16200
H2279       H  0.69676860  0.16161379  0.27965205     0.15900
N2280       N  0.74231332  0.20180017  0.23998800     0.75000
O2281       O  0.72148018  0.17165337  0.42846309    -0.38500
O2282       O  0.73173711  0.21623583  0.43179793    -0.38400
O2283       O  0.73905862  0.17990539  0.22142943    -0.39100
O2284       O  0.74638063  0.22359145  0.21999148    -0.39200
C2285       C  0.87256371  0.39677124  0.39529581    -0.11500
C2286       C  0.86466457  0.41334611  0.37166623     0.05500
C2287       C  0.85125726  0.40284208  0.33395962    -0.06800
C2288       C  0.84764704  0.37683886  0.31926034    -0.07500
C2289       C  0.85731319  0.36105770  0.34168863    -0.02100
C2290       C  0.86859787  0.37054427  0.38104368     0.04700
N2291       N  0.87693566  0.35429072  0.40634460     0.67300
H2292       H  0.88314119  0.40494397  0.42420436     0.16200
H2293       H  0.83892221  0.36998048  0.28907374     0.15900
N2294       N  0.84374749  0.41970183  0.30870114     0.75000
O2295       O  0.90174460  0.36615076  0.42171638    -0.38500
O2296       O  0.85875563  0.32873144  0.41605426    -0.38400
O2297       O  0.85705817  0.43026449  0.27593877    -0.39100
O2298       O  0.82249333  0.42233629  0.31767801    -0.39200
C2299       C  0.91442266  0.26259293  0.42288204    -0.11500
C2300       C  0.90065762  0.24528190  0.38913241     0.05500
C2301       C  0.89966668  0.21859188  0.38550980    -0.06800
C2302       C  0.91166107  0.20954610  0.41584471    -0.07500
C2303       C  0.92478197  0.22659505  0.45003011    -0.02100
C2304       C  0.92660535  0.25371495  0.45308900     0.04700
N2305       N  0.94111527  0.27274292  0.48632725     0.67300
H2306       H  0.91580535  0.28327662  0.42588265     0.16200
H2307       H  0.91009730  0.18876592  0.41306164     0.15900
N2308       N  0.88675733  0.20043166  0.35115033     0.75000
O2309       O  0.96671063  0.27991044  0.49466554    -0.38500
O2310       O  0.92956985  0.28493298  0.50436953    -0.38400
O2311       O  0.90051086  0.20589877  0.31829292    -0.39100
O2312       O  0.86379784  0.17667211  0.35552093    -0.39200
C2313       C  0.02172092  0.38344654  0.26999502    -0.11500
C2314       C  0.03607967  0.36998638  0.25421414     0.05500
C2315       C  0.01968417  0.34173385  0.23881661    -0.06800
C2316       C  0.98966976  0.32754143  0.23991251    -0.07500
C2317       C  0.97529268  0.34090220  0.25587289    -0.02100
C2318       C  0.99165122  0.36925861  0.27092756     0.04700
N2319       N  0.97811407  0.38421049  0.28645935     0.67300
H2320       H  0.03389551  0.40513478  0.28173401     0.16200
H2321       H  0.97754540  0.30579787  0.22835249     0.15900
N2322       N  0.03309667  0.32737274  0.22087613     0.75000
O2323       O  0.98154827  0.39190491  0.32312164    -0.38500
O2324       O  0.96495412  0.39206403  0.26271505    -0.38400
O2325       O  0.02859917  0.30371079  0.23534949    -0.39100
O2326       O  0.04638697  0.33641037  0.18772502    -0.39200
C2327       C  0.85486647  0.19217796  0.15363725    -0.11500
C2328       C  0.84496739  0.18990005  0.19349746     0.05500
C2329       C  0.82671697  0.16215216  0.21003264    -0.06800
C2330       C  0.81894125  0.13767790  0.18674383    -0.07500
C2331       C  0.82902893  0.13996979  0.14699066    -0.02100
C2332       C  0.84699371  0.16771176  0.13030374     0.04700
N2333       N  0.85677721  0.17161829  0.08927552     0.67300
H2334       H  0.86841486  0.21312911  0.14000724     0.16200
H2335       H  0.80540110  0.11672238  0.20036758     0.15900
N2336       N  0.81654263  0.15822690  0.25085661     0.75000
O2337       O  0.84054293  0.17078093  0.06105689    -0.38500
O2338       O  0.88288999  0.18060647  0.08195264    -0.38400
O2339       O  0.79058413  0.15027896  0.25760873    -0.39100
O2340       O  0.83198723  0.15776632  0.27930804    -0.39200
loop_ 
_geom_bond_atom_site_label_1 
_geom_bond_atom_site_label_2 
_geom_bond_distance 
_geom_bond_site_symmetry_2 
_ccdc_geom_bond_type 
Zn1           O5   1.956       .  S
Zn1           O6   2.026       .  S
Zn1          O10   2.048       .  S
Zn1          O17   2.058       .  S
Zn2           O5   1.932       .  S
Zn2           O7   2.031       .  S
Zn2           O9   2.014       .  S
Zn2          O13   2.010       .  S
Zn3           O5   1.911       .  S
Zn3           O8   1.980       .  S
Zn3          O11   1.995       .  S
Zn3          O14   1.973       .  S
Zn4           O5   1.925       .  S
Zn4          O12   2.033       .  S
Zn4          O15   2.028       .  S
Zn4          O16   2.005       .  S
O6           C18   1.276       .  A
O7           C19   1.275       .  A
O8           C20   1.272       .  A
O9           C18   1.276       .  A
O10          C20   1.277       .  A
O11          C19   1.269       .  A
O12          C21   1.277       .  A
O13          C22   1.274       .  A
O14          C21   1.268       .  A
O15          C22   1.277       .  A
O16          C23   1.274       .  A
O17          C23   1.278       .  A
C18        C2289   1.484       .  S
C19        C2300   1.485       .  S
C20        C2272   1.469       .  S
C21        C2328   1.483       .  S
C22        C2317   1.484       .  S
C23        C2258   1.477       .  S
Zn24         O28   1.938       .  S
Zn24         O29   2.010       .  S
Zn24         O33   1.978       .  S
Zn24         O40   2.004       .  S
Zn25         O28   1.963       .  S
Zn25         O30   2.033       .  S
Zn25         O32   2.030       .  S
Zn25         O36   2.062       .  S
Zn26         O28   1.959       .  S
Zn26         O31   2.049       .  S
Zn26         O34   2.011       .  S
Zn26         O37   2.045       .  S
Zn27         O28   1.927       .  S
Zn27         O35   2.012   1_655  S
Zn27         O38   1.999   1_655  S
Zn27         O39   2.019   1_655  S
O29          C41   1.273       .  A
O30          C42   1.279       .  A
O31          C43   1.277       .  A
O32          C41   1.273       .  A
O33          C43   1.269       .  A
O34          C42   1.276       .  A
O35          C44   1.274       .  A
O36          C45   1.280       .  A
O37          C44   1.276   1_655  A
O38          C45   1.273   1_455  A
O39          C46   1.274   1_455  A
O40          C46   1.272       .  A
C41        C2230   1.494       .  S
C42        C2205   1.484       .  S
C43        C2303   1.481       .  S
C44        C2219   1.487       .  S
C45        C2188   1.495   1_655  S
C46        C2244   1.489   1_655  S
Zn47         O51   1.947       .  S
Zn47         O52   2.018       .  S
Zn47         O56   2.021       .  S
Zn47         O63   1.992   1_556  S
Zn48         O51   1.924       .  S
Zn48         O53   1.999       .  S
Zn48         O55   1.972       .  S
Zn48         O59   1.983       .  S
Zn49         O51   1.949       .  S
Zn49         O54   2.001       .  S
Zn49         O57   2.033       .  S
Zn49         O60   2.010       .  S
Zn50         O51   1.973       .  S
Zn50         O58   2.033       .  S
Zn50         O61   2.073       .  S
Zn50         O62   2.072       .  S
O52          C64   1.272       .  A
O53          C65   1.269       .  A
O54          C66   1.272       .  A
O55          C64   1.268       .  A
O56          C66   1.275       .  A
O57          C65   1.274       .  A
O58          C67   1.277       .  A
O59          C68   1.272       .  A
O60          C67   1.276       .  A
O61          C68   1.280       .  A
O62          C69   1.280   1_556  A
O63          C69   1.272       .  A
C64        C2174   1.463       .  S
C65        C2160   1.488       .  S
C66        C2146   1.478       .  S
C67        C2132   1.486       .  S
C68        C2118   1.476       .  S
C69        C2261   1.484       .  S
Zn70         O74   1.953       .  S
Zn70         O75   2.049       .  S
Zn70         O79   2.032       .  S
Zn70         O86   2.008       .  S
Zn71         O74   1.925       .  S
Zn71         O76   1.988       .  S
Zn71         O78   2.006       .  S
Zn71         O82   2.016       .  S
Zn72         O74   1.950       .  S
Zn72         O77   2.008       .  S
Zn72         O80   2.039       .  S
Zn72         O83   2.047       .  S
Zn73         O74   1.937       .  S
Zn73         O81   1.996       .  S
Zn73         O84   2.006       .  S
Zn73         O85   2.004       .  S
O75          C87   1.279       .  A
O76          C88   1.273       .  A
O77          C89   1.275       .  A
O78          C87   1.273       .  A
O79          C89   1.277       .  A
O80          C88   1.276       .  A
O81          C90   1.271       .  A
O82          C91   1.273       .  A
O83          C90   1.278       .  A
O84          C91   1.273       .  A
O85          C92   1.273       .  A
O86          C92   1.271       .  A
C87        C2065   1.487       .  S
C88        C2093   1.484       .  S
C89        C2076   1.491       .  S
C90        C2163   1.484       .  S
C91        C2247   1.486       .  S
C92        C2104   1.471       .  S
Zn93         O97   1.946       .  S
Zn93         O98   2.002       .  S
Zn93        O102   2.039       .  S
Zn93        O109   2.023       .  S
Zn94         O97   1.962       .  S
Zn94         O99   2.056       .  S
Zn94        O101   2.061       .  S
Zn94        O105   2.030       .  S
Zn95         O97   1.924       .  S
Zn95        O100   1.980       .  S
Zn95        O103   1.981       .  S
Zn95        O106   2.006   1_556  S
Zn96         O97   1.948       .  S
Zn96        O104   2.028   1_556  S
Zn96        O107   2.022       .  S
Zn96        O108   2.002       .  S
O98         C110   1.272       .  A
O99         C111   1.279       .  A
O100        C112   1.267       .  A
O101        C110   1.279       .  A
O102        C112   1.276       .  A
O103        C111   1.272       .  A
O104        C113   1.274       .  A
O105        C114   1.276   1_455  A
O106        C113   1.270       .  A
O107        C114   1.275   1_455  A
O108        C115   1.273       .  A
O109        C115   1.277       .  A
C110       C2191   1.478       .  S
C111       C2006   1.466       .  S
C112       C2051   1.489       .  S
C113       C2034   1.476       .  S
C114       C2023   1.483   1_556  S
C115       C2149   1.482       .  S
Zn116       O120   1.937       .  S
Zn116       O121   2.009       .  S
Zn116       O125   1.983       .  S
Zn116       O132   2.011       .  S
Zn117       O120   1.953       .  S
Zn117       O122   2.037       .  S
Zn117       O124   1.999       .  S
Zn117       O128   2.048       .  S
Zn118       O120   1.963       .  S
Zn118       O123   2.065       .  S
Zn118       O126   2.024       .  S
Zn118       O129   2.062       .  S
Zn119       O120   1.926       .  S
Zn119       O127   1.980       .  S
Zn119       O130   2.009       .  S
Zn119       O131   2.022       .  S
O121        C133   1.273       .  A
O122        C134   1.278       .  A
O123        C135   1.281       .  A
O124        C133   1.271       .  A
O125        C135   1.268       .  A
O126        C134   1.276       .  A
O127        C136   1.272       .  A
O128        C137   1.279       .  A
O129        C136   1.279       .  A
O130        C137   1.273       .  A
O131        C138   1.274       .  A
O132        C138   1.273       .  A
C133       C1995   1.473       .  S
C134       C1967   1.488       .  S
C135       C2037   1.496       .  S
C136       C1978   1.485       .  S
C137       C2062   1.488       .  S
C138       C2314   1.484       .  S
Zn139       O143   1.940       .  S
Zn139       O144   2.015       .  S
Zn139       O148   2.017       .  S
Zn139       O155   1.990       .  S
Zn140       O143   1.957       .  S
Zn140       O145   2.042       .  S
Zn140       O147   2.021       .  S
Zn140       O151   2.042       .  S
Zn141       O143   1.926       .  S
Zn141       O146   1.999       .  S
Zn141       O149   1.977       .  S
Zn141       O152   1.990       .  S
Zn142       O143   1.940       .  S
Zn142       O150   2.019       .  S
Zn142       O153   1.987       .  S
Zn142       O154   2.024       .  S
O144        C156   1.274       .  A
O145        C157   1.277       .  A
O146        C158   1.272       .  A
O147        C156   1.275       .  A
O148        C158   1.272       .  A
O149        C157   1.272       .  A
O150        C159   1.272       .  A
O151        C160   1.276       .  A
O152        C159   1.268       .  A
O153        C160   1.272       .  A
O154        C161   1.275       .  A
O155        C161   1.272       .  A
C156       C2079   1.475       .  S
C157       C1911   1.464       .  S
C158       C1939   1.485       .  S
C159       C1950   1.470       .  S
C160       C1894   1.476       .  S
C161       C1922   1.476       .  S
Zn162       O166   1.951       .  S
Zn162       O167   2.034       .  S
Zn162       O171   2.007       .  S
Zn162       O178   2.017       .  S
Zn163       O166   1.915       .  S
Zn163       O168   1.960       .  S
Zn163       O170   1.976       .  S
Zn163       O174   1.955       .  S
Zn164       O166   1.940       .  S
Zn164       O169   2.023       .  S
Zn164       O172   2.032       .  S
Zn164       O175   1.992       .  S
Zn165       O166   1.975       .  S
Zn165       O173   2.069       .  S
Zn165       O176   2.071       .  S
Zn165       O177   2.042       .  S
O167        C179   1.274       .  A
O168        C180   1.266       .  A
O169        C181   1.274       .  A
O170        C179   1.266       .  A
O171        C181   1.274       .  A
O172        C180   1.274       .  A
O173        C182   1.279       .  A
O174        C183   1.268       .  A
O175        C182   1.272       .  A
O176        C183   1.279       .  A
O177        C184   1.279   1_455  A
O178        C184   1.277   1_455  A
C179       C1936   1.482       .  S
C180       C1869   1.465       .  S
C181       C1880   1.486   1_455  S
C182       C1827   1.478       .  S
C183       C1838   1.471       .  S
C184       C1852   1.487       .  S
Zn185       O189   1.918       .  S
Zn185       O190   1.995       .  S
Zn185       O194   2.009       .  S
Zn185       O201   1.997       .  S
Zn186       O189   1.959       .  S
Zn186       O191   2.065       .  S
Zn186       O193   2.059       .  S
Zn186       O197   2.008       .  S
Zn187       O189   1.937       .  S
Zn187       O192   1.998       .  S
Zn187       O195   1.982       .  S
Zn187       O198   2.002       .  S
Zn188       O189   1.968       .  S
Zn188       O196   2.027       .  S
Zn188       O199   2.034       .  S
Zn188       O200   2.066       .  S
O190        C202   1.273       .  A
O191        C203   1.279       .  A
O192        C204   1.272       .  A
O193        C202   1.277       .  A
O194        C204   1.272       .  A
O195        C203   1.269       .  A
O196        C205   1.275       .  A
O197        C206   1.277       .  A
O198        C205   1.272       .  A
O199        C206   1.278       .  A
O200        C207   1.279       .  A
O201        C207   1.272       .  A
C202       C2121   1.490       .  S
C203       C1810   1.488       .  S
C204       C1925   1.479       .  S
C205       C1796   1.486       .  S
C206       C1782   1.489       .  S
C207       C1768   1.499       .  S
Zn208       O212   1.917       .  S
Zn208       O213   1.996       .  S
Zn208       O217   2.013       .  S
Zn208       O224   2.004       .  S
Zn209       O212   1.956       .  S
Zn209       O214   2.018   1_655  S
Zn209       O216   2.063       .  S
Zn209       O220   2.056       .  S
Zn210       O212   1.938       .  S
Zn210       O215   2.016   1_655  S
Zn210       O218   2.011   1_655  S
Zn210       O221   2.043   1_554  S
Zn211       O212   1.912       .  S
Zn211       O219   2.000   1_554  S
Zn211       O222   1.978       .  S
Zn211       O223   1.979       .  S
O213        C225   1.273       .  A
O214        C226   1.276       .  A
O215        C227   1.274       .  A
O216        C225   1.279       .  A
O217        C227   1.275   1_655  A
O218        C226   1.277       .  A
O219        C228   1.271       .  A
O220        C229   1.278       .  A
O221        C228   1.276       .  A
O222        C229   1.273       .  A
O223        C230   1.269       .  A
O224        C230   1.272       .  A
C225       C1824   1.485       .  S
C226       C1726   1.479   1_554  S
C227       C1754   1.473       .  S
C228       C1813   1.487       .  S
C229       C1712   1.472       .  S
C230       C1740   1.481       .  S
Zn231       O235   1.916       .  S
Zn231       O236   2.005       .  S
Zn231       O240   1.987       .  S
Zn231       O247   1.986       .  S
Zn232       O235   1.938       .  S
Zn232       O237   2.004       .  S
Zn232       O239   2.021       .  S
Zn232       O243   1.979       .  S
Zn233       O235   1.968       .  S
Zn233       O238   2.040       .  S
Zn233       O241   1.996       .  S
Zn233       O244   2.026       .  S
Zn234       O235   1.955       .  S
Zn234       O242   2.010       .  S
Zn234       O245   2.059       .  S
Zn234       O246   2.054       .  S
O236        C248   1.273       .  A
O237        C249   1.272       .  A
O238        C250   1.275       .  A
O239        C248   1.273       .  A
O240        C250   1.272       .  A
O241        C249   1.270       .  A
O242        C251   1.277       .  A
O243        C252   1.269       .  A
O244        C251   1.275       .  A
O245        C252   1.278       .  A
O246        C253   1.278       .  A
O247        C253   1.272       .  A
C248       C1757   1.491       .  S
C249       C2177   1.465       .  S
C250       C1897   1.491   1_554  S
C251       C1981   1.488       .  S
C252       C1698   1.484       .  S
C253       C1684   1.480       .  S
Zn254       O258   1.980       .  S
Zn254       O259   2.056       .  S
Zn254       O263   2.039       .  S
Zn254       O270   2.068       .  S
Zn255       O258   1.934       .  S
Zn255       O260   2.016       .  S
Zn255       O262   1.978       .  S
Zn255       O266   1.977       .  S
Zn256       O258   1.938       .  S
Zn256       O261   1.999       .  S
Zn256       O264   2.014       .  S
Zn256       O267   2.000       .  S
Zn257       O258   1.949       .  S
Zn257       O265   2.024       .  S
Zn257       O268   2.030       .  S
Zn257       O269   1.993       .  S
O259        C271   1.278       .  A
O260        C272   1.270       .  A
O261        C273   1.274       .  A
O262        C271   1.270       .  A
O263        C273   1.276       .  A
O264        C272   1.274       .  A
O265        C274   1.275       .  A
O266        C275   1.269       .  A
O267        C274   1.271       .  A
O268        C275   1.274       .  A
O269        C276   1.273       .  A
O270        C276   1.279       .  A
C271       C2286   1.467       .  S
C272       C1701   1.488       .  S
C273       C1670   1.491       .  S
C274       C1883   1.481       .  S
C275       C2107   1.481       .  S
C276       C1771   1.483       .  S
Zn277       O281   1.968       .  S
Zn277       O282   2.055       .  S
Zn277       O286   2.022       .  S
Zn277       O293   2.049       .  S
Zn278       O281   1.940       .  S
Zn278       O283   2.014       .  S
Zn278       O285   1.988       .  S
Zn278       O289   2.022       .  S
Zn279       O281   1.941       .  S
Zn279       O284   2.013       .  S
Zn279       O287   2.009       .  S
Zn279       O290   2.027       .  S
Zn280       O281   1.925       .  S
Zn280       O288   2.002       .  S
Zn280       O291   1.971       .  S
Zn280       O292   1.984       .  S
O282        C294   1.277       .  A
O283        C295   1.272       .  A
O284        C296   1.275       .  A
O285        C294   1.273       .  A
O286        C296   1.275       .  A
O287        C295   1.272       .  A
O288        C297   1.270       .  A
O289        C298   1.273       .  A
O290        C297   1.275       .  A
O291        C298   1.268       .  A
O292        C299   1.272       .  A
O293        C299   1.277       .  A
C294       C1614   1.479       .  S
C295       C1656   1.464       .  S
C296       C1628   1.484       .  S
C297       C1642   1.489       .  S
C298       C1743   1.480       .  S
C299       C1673   1.471       .  S
Zn300       O304   1.962       .  S
Zn300       O305   2.058       .  S
Zn300       O309   2.046       .  S
Zn300       O316   2.022       .  S
Zn301       O304   1.936       .  S
Zn301       O306   1.992       .  S
Zn301       O308   1.991       .  S
Zn301       O312   2.023       .  S
Zn302       O304   1.961       .  S
Zn302       O307   2.005       .  S
Zn302       O310   2.041       .  S
Zn302       O313   2.039       .  S
Zn303       O304   1.943       .  S
Zn303       O311   1.992       .  S
Zn303       O314   2.000       .  S
Zn303       O315   2.013       .  S
O305        C317   1.280       .  A
O306        C318   1.273       .  A
O307        C319   1.274       .  A
O308        C317   1.271       .  A
O309        C319   1.278       .  A
O310        C318   1.275       .  A
O311        C320   1.271       .  A
O312        C321   1.274       .  A
O313        C320   1.276       .  A
O314        C321   1.271       .  A
O315        C322   1.272       .  A
O316        C322   1.275       .  A
C317       C1575   1.490       .  S
C318       C1586   1.483       .  S
C319       C1855   1.487       .  S
C320       C1645   1.479       .  S
C321       C1600   1.490       .  S
C322       C1799   1.486       .  S
Zn323       O327   1.968       .  S
Zn323       O328   2.060   1_556  S
Zn323       O332   2.004       .  S
Zn323       O339   2.055   1_556  S
Zn324       O327   1.933       .  S
Zn324       O329   2.005       .  S
Zn324       O331   1.972       .  S
Zn324       O335   1.998       .  S
Zn325       O327   1.955       .  S
Zn325       O330   2.027       .  S
Zn325       O333   2.019       .  S
Zn325       O336   2.053       .  S
Zn326       O327   1.930       .  S
Zn326       O334   2.007       .  S
Zn326       O337   2.029       .  S
Zn326       O338   1.988       .  S
O328        C340   1.279       .  A
O329        C341   1.272       .  A
O330        C342   1.277       .  A
O331        C340   1.269   1_556  A
O332        C342   1.274       .  A
O333        C341   1.273       .  A
O334        C343   1.273       .  A
O335        C344   1.272       .  A
O336        C343   1.279       .  A
O337        C344   1.275       .  A
O338        C345   1.272       .  A
O339        C345   1.277   1_554  A
C340       C1544   1.484       .  S
C341       C1558   1.481       .  S
C342       C1516   1.481       .  S
C343       C1572   1.486       .  S
C344       C1530   1.490       .  S
C345       C1715   1.488       .  S
Zn346       O350   1.931       .  S
Zn346       O351   1.974       .  S
Zn346       O355   2.006       .  S
Zn346       O362   1.977       .  S
Zn347       O350   1.970       .  S
Zn347       O352   2.035       .  S
Zn347       O354   2.049       .  S
Zn347       O358   2.080       .  S
Zn348       O350   1.935       .  S
Zn348       O353   2.022       .  S
Zn348       O356   2.003       .  S
Zn348       O359   2.006       .  S
Zn349       O350   1.931       .  S
Zn349       O357   2.012       .  S
Zn349       O360   1.993       .  S
Zn349       O361   2.007       .  S
O351        C363   1.271       .  A
O352        C364   1.277       .  A
O353        C365   1.273       .  A
O354        C363   1.278       .  A
O355        C365   1.271       .  A
O356        C364   1.276       .  A
O357        C366   1.274       .  A
O358        C367   1.281       .  A
O359        C366   1.273       .  A
O360        C367   1.273       .  A
O361        C368   1.272       .  A
O362        C368   1.268       .  A
C363       C1488   1.464       .  S
C364       C1477   1.490       .  S
C365       C1547   1.485       .  S
C366       C1659   1.475       .  S
C367       C1463   1.491       .  S
C368       C1502   1.472       .  S
Zn369       O373   1.937       .  S
Zn369       O374   2.011       .  S
Zn369       O378   2.013       .  S
Zn369       O385   2.041       .  S
Zn370       O373   1.955       .  S
Zn370       O375   2.072       .  S
Zn370       O377   2.038       .  S
Zn370       O381   2.050       .  S
Zn371       O373   1.924       .  S
Zn371       O376   2.016       .  S
Zn371       O379   1.999       .  S
Zn371       O382   2.020       .  S
Zn372       O373   1.917       .  S
Zn372       O380   1.983       .  S
Zn372       O383   1.981       .  S
Zn372       O384   1.999       .  S
O374        C386   1.276       .  A
O375        C387   1.280       .  A
O376        C388   1.275       .  A
O377        C386   1.279       .  A
O378        C388   1.273       .  A
O379        C387   1.273       .  A
O380        C389   1.269       .  A
O381        C390   1.278       .  A
O382        C389   1.275       .  A
O383        C390   1.271       .  A
O384        C391   1.270       .  A
O385        C391   1.277       .  A
C386       C1418   1.484       .  S
C387       C1460   1.481       .  S
C388       C1603   1.470       .  S
C389       C1432   1.483       .  S
C390       C1404   1.465       .  S
C391       C1446   1.492       .  S
Zn392       O396   1.939       .  S
Zn392       O397   1.985       .  S
Zn392       O401   2.010       .  S
Zn392       O408   2.024       .  S
Zn393       O396   1.950       .  S
Zn393       O398   2.048       .  S
Zn393       O400   2.057       .  S
Zn393       O404   2.008       .  S
Zn394       O396   1.926       .  S
Zn394       O399   2.022       .  S
Zn394       O402   1.991       .  S
Zn394       O405   2.004       .  S
Zn395       O396   1.951       .  S
Zn395       O403   2.028       .  S
Zn395       O406   2.022       .  S
Zn395       O407   2.002       .  S
O397        C409   1.270       .  A
O398        C410   1.277       .  A
O399        C411   1.274       .  A
O400        C409   1.278       .  A
O401        C411   1.275       .  A
O402        C410   1.273       .  A
O403        C412   1.275   1_556  A
O404        C413   1.277       .  A
O405        C412   1.272   1_556  A
O406        C413   1.275       .  A
O407        C414   1.270       .  A
O408        C414   1.274       .  A
C409       C1449   1.481       .  S
C410       C1785   1.483       .  S
C411       C1533   1.488       .  S
C412       C1617   1.468       .  S
C413       C1376   1.487       .  S
C414       C1390   1.483       .  S
Zn415       O419   1.929       .  S
Zn415       O420   1.986       .  S
Zn415       O424   1.978       .  S
Zn415       O431   2.000       .  S
Zn416       O419   1.974       .  S
Zn416       O421   2.052       .  S
Zn416       O423   2.055       .  S
Zn416       O427   2.021       .  S
Zn417       O419   1.951       .  S
Zn417       O422   2.027       .  S
Zn417       O425   2.001       .  S
Zn417       O428   2.036       .  S
Zn418       O419   1.945       .  S
Zn418       O426   2.006       .  S
Zn418       O429   2.009       .  S
Zn418       O430   2.027       .  S
O420        C432   1.270       .  A
O421        C433   1.277       .  A
O422        C434   1.275       .  A
O423        C432   1.277       .  A
O424        C434   1.267       .  A
O425        C433   1.273       .  A
O426        C435   1.272       .  A
O427        C436   1.274       .  A
O428        C435   1.276       .  A
O429        C436   1.276       .  A
O430        C437   1.274       .  A
O431        C437   1.270       .  A
C432       C1631   1.469       .  S
C433       C1320   1.474       .  S
C434       C1435   1.485       .  S
C435       C1365   1.485       .  S
C436       C1337   1.490       .  S
C437       C1351   1.490       .  S
Zn438       O442   1.972       .  S
Zn438       O443   2.055       .  S
Zn438       O447   2.053       .  S
Zn438       O454   2.033       .  S
Zn439       O442   1.949       .  S
Zn439       O444   2.036       .  S
Zn439       O446   1.992       .  S
Zn439       O450   2.026       .  S
Zn440       O442   1.934       .  S
Zn440       O445   1.975       .  S
Zn440       O448   1.990       .  S
Zn440       O451   1.998       .  S
Zn441       O442   1.954       .  S
Zn441       O449   2.026       .  S
Zn441       O452   1.998       .  S
Zn441       O453   2.030       .  S
O443        C455   1.277   1_554  A
O444        C456   1.274       .  A
O445        C457   1.271       .  A
O446        C455   1.272   1_554  A
O447        C457   1.278       .  A
O448        C456   1.268       .  A
O449        C458   1.273       .  A
O450        C459   1.275       .  A
O451        C458   1.271       .  A
O452        C459   1.273       .  A
O453        C460   1.276       .  A
O454        C460   1.276       .  A
C455       C1295   1.471       .  S
C456       C1393   1.469       .  S
C457       C1474   1.467       .  S
C458       C1348   1.480       .  S
C459       C1306   1.487       .  S
C460       C1964   1.489       .  S
Zn461       O465   1.941       .  S
Zn461       O466   2.032       .  S
Zn461       O470   2.034       .  S
Zn461       O477   2.008       .  S
Zn462       O465   1.953       .  S
Zn462       O467   2.035       .  S
Zn462       O469   2.016       .  S
Zn462       O473   2.015       .  S
Zn463       O465   1.920       .  S
Zn463       O468   1.977       .  S
Zn463       O471   1.992       .  S
Zn463       O474   1.980       .  S
Zn464       O465   1.976       .  S
Zn464       O472   2.078       .  S
Zn464       O475   2.035       .  S
Zn464       O476   2.077       .  S
O466        C478   1.276       .  A
O467        C479   1.275       .  A
O468        C480   1.269       .  A
O469        C478   1.274       .  A
O470        C480   1.276       .  A
O471        C479   1.269       .  A
O472        C481   1.280       .  A
O473        C482   1.276       .  A
O474        C481   1.270       .  A
O475        C482   1.278       .  A
O476        C483   1.280       .  A
O477        C483   1.275       .  A
C478       C1362   1.488       .  S
C479       C1278   1.485       .  S
C480       C1992   1.476       .  S
C481       C2216   1.477       .  S
C482       C1267   1.483       .  S
C483       C1250   1.490       .  S
Zn484       O488   1.910       .  S
Zn484       O489   1.984       .  S
Zn484       O493   1.996       .  S
Zn484       O500   1.977       .  S
Zn485       O488   1.937       .  S
Zn485       O490   2.041       .  S
Zn485       O492   2.038       .  S
Zn485       O496   2.002       .  S
Zn486       O488   1.937       .  S
Zn486       O491   2.026       .  S
Zn486       O494   2.000       .  S
Zn486       O497   2.012       .  S
Zn487       O488   1.957       .  S
Zn487       O495   2.023       .  S
Zn487       O498   2.043       .  S
Zn487       O499   2.054       .  S
O489        C501   1.269       .  A
O490        C502   1.279       .  A
O491        C503   1.273       .  A
O492        C501   1.277       .  A
O493        C503   1.271       .  A
O494        C502   1.272       .  A
O495        C504   1.276       .  A
O496        C505   1.274       .  A
O497        C504   1.275       .  A
O498        C505   1.278       .  A
O499        C506   1.277       .  A
O500        C506   1.272       .  A
C501       C2048   1.489       .  S
C502       C1239   1.486       .  S
C503       C1281   1.484       .  S
C504       C1407   1.481       .  S
C505       C1292   1.475       .  S
C506       C2090   1.470       .  S
Zn507       O511   1.925       .  S
Zn507       O512   2.015       .  S
Zn507       O516   2.028       .  S
Zn507       O523   1.985       .  S
Zn508       O511   1.944       .  S
Zn508       O513   2.036   1_554  S
Zn508       O515   2.009       .  S
Zn508       O519   2.011       .  S
Zn509       O511   1.912       .  S
Zn509       O514   1.973       .  S
Zn509       O517   2.001   1_554  S
Zn509       O520   1.973       .  S
Zn510       O511   1.976       .  S
Zn510       O518   2.072       .  S
Zn510       O521   2.039       .  S
Zn510       O522   2.099       .  S
O512        C524   1.275       .  A
O513        C525   1.274       .  A
O514        C526   1.269       .  A
O515        C524   1.273       .  A
O516        C526   1.275       .  A
O517        C525   1.270       .  A
O518        C527   1.280       .  A
O519        C528   1.276       .  A
O520        C527   1.272       .  A
O521        C528   1.279       .  A
O522        C529   1.283       .  A
O523        C529   1.271       .  A
C524       C1309   1.471       .  S
C525       C1211   1.486       .  S
C526       C1225   1.484       .  S
C527       C1194   1.475       .  S
C528       C2009   1.487   1_554  S
C529       C1253   1.500       .  S
Zn530       O534   1.928       .  S
Zn530       O535   2.000       .  S
Zn530       O539   1.990       .  S
Zn530       O546   2.029       .  S
Zn531       O534   1.962       .  S
Zn531       O536   2.037       .  S
Zn531       O538   2.060       .  S
Zn531       O542   2.009       .  S
Zn532       O534   1.961       .  S
Zn532       O537   2.044       .  S
Zn532       O540   2.016       .  S
Zn532       O543   2.053       .  S
Zn533       O534   1.941       .  S
Zn533       O541   1.988       .  S
Zn533       O544   2.002       .  S
Zn533       O545   2.001       .  S
O535        C547   1.273       .  A
O536        C548   1.278       .  A
O537        C549   1.276       .  A
O538        C547   1.279       .  A
O539        C549   1.272       .  A
O540        C548   1.275       .  A
O541        C550   1.271       .  A
O542        C551   1.272       .  A
O543        C550   1.278       .  A
O544        C551   1.273       .  A
O545        C552   1.271       .  A
O546        C552   1.275       .  A
C547       C1323   1.491       .  S
C548       C1169   1.480       .  S
C549       C1379   1.482       .  S
C550       C1208   1.487       .  S
C551       C1180   1.485       .  S
C552       C1236   1.483       .  S
Zn553       O557   1.977       .  S
Zn553       O558   2.061       .  S
Zn553       O562   2.057       .  S
Zn553       O569   2.031       .  S
Zn554       O557   1.958       .  S
Zn554       O559   2.039       .  S
Zn554       O561   1.996       .  S
Zn554       O565   2.032       .  S
Zn555       O557   1.931       .  S
Zn555       O560   1.978       .  S
Zn555       O563   1.969       .  S
Zn555       O566   2.006       .  S
Zn556       O557   1.945       .  S
Zn556       O564   2.016       .  S
Zn556       O567   1.997       .  S
Zn556       O568   2.001       .  S
O558        C570   1.278       .  A
O559        C571   1.275       .  A
O560        C572   1.269       .  A
O561        C570   1.272       .  A
O562        C572   1.278       .  A
O563        C571   1.269       .  A
O564        C573   1.272       .  A
O565        C574   1.275       .  A
O566        C573   1.270       .  A
O567        C574   1.271       .  A
O568        C575   1.274       .  A
O569        C575   1.276       .  A
C570       C1099   1.475   1_554  S
C571       C1155   1.486       .  S
C572       C1110   1.469       .  S
C573       C1124   1.484       .  S
C574       C1141   1.470       .  S
C575       C1491   1.487       .  S
Zn576       O580   1.956       .  S
Zn576       O581   1.988       .  S
Zn576       O585   2.024       .  S
Zn576       O592   2.031       .  S
Zn577       O580   1.969       .  S
Zn577       O582   2.009       .  S
Zn577       O584   2.054       .  S
Zn577       O588   2.059       .  S
Zn578       O580   1.950       .  S
Zn578       O583   2.002       .  S
Zn578       O586   2.016       .  S
Zn578       O589   2.029       .  S
Zn579       O580   1.921       .  S
Zn579       O587   1.998       .  S
Zn579       O590   1.975       .  S
Zn579       O591   1.966       .  S
O581        C593   1.270       .  A
O582        C594   1.274       .  A
O583        C595   1.271       .  A
O584        C593   1.277       .  A
O585        C595   1.275       .  A
O586        C594   1.275       .  A
O587        C596   1.271       .  A
O588        C597   1.277       .  A
O589        C596   1.273       .  A
O590        C597   1.270       .  A
O591        C598   1.268       .  A
O592        C598   1.274       .  A
C593       C1043   1.471       .  S
C594       C2275   1.472       .  S
C595       C1082   1.471       .  S
C596       C1127   1.485       .  S
C597       C1057   1.477       .  S
C598       C1071   1.482       .  S
Zn599       O603   1.921       .  S
Zn599       O604   1.974       .  S
Zn599       O608   1.999       .  S
Zn599       O615   1.988       .  S
Zn600       O603   1.936       .  S
Zn600       O605   2.024       .  S
Zn600       O607   2.029       .  S
Zn600       O611   2.014       .  S
Zn601       O603   1.947       .  S
Zn601       O606   2.036   1_554  S
Zn601       O609   2.012       .  S
Zn601       O612   2.012   1_545  S
Zn602       O603   1.965       .  S
Zn602       O610   2.027       .  S
Zn602       O613   2.075       .  S
Zn602       O614   2.060       .  S
O604        C616   1.268       .  A
O605        C617   1.275       .  A
O606        C618   1.275       .  A
O607        C616   1.277       .  A
O608        C618   1.269   1_554  A
O609        C617   1.274       .  A
O610        C619   1.278   1_545  A
O611        C620   1.274       .  A
O612        C619   1.276       .  A
O613        C620   1.279       .  A
O614        C621   1.278       .  A
O615        C621   1.271       .  A
C616       C2331   1.482       .  S
C617       C1138   1.491   1_545  S
C618       C1029   1.491       .  S
C619       C1519   1.482       .  S
C620       C1012   1.485       .  S
C621       C2020   1.472       .  S
Zn622       O626   1.955       .  S
Zn622       O627   2.017       .  S
Zn622       O631   2.029       .  S
Zn622       O638   2.050       .  S
Zn623       O626   1.943       .  S
Zn623       O628   1.992       .  S
Zn623       O630   2.028       .  S
Zn623       O634   2.010       .  S
Zn624       O626   1.964       .  S
Zn624       O629   2.008       .  S
Zn624       O632   2.049       .  S
Zn624       O635   2.049       .  S
Zn625       O626   1.927       .  S
Zn625       O633   1.985       .  S
Zn625       O636   2.024       .  S
Zn625       O637   2.002       .  S
O627        C639   1.272       .  A
O628        C640   1.271       .  A
O629        C641   1.275       .  A
O630        C639   1.276       .  A
O631        C641   1.277       .  A
O632        C640   1.278       .  A
O633        C642   1.272       .  A
O634        C643   1.274       .  A
O635        C642   1.276       .  A
O636        C643   1.273       .  A
O637        C644   1.274       .  A
O638        C644   1.278       .  A
C639       C2233   1.496       .  S
C640       C1026   1.479       .  S
C641       C2135   1.482       .  S
C642        C984   1.490       .  S
C643        C998   1.489       .  S
C644       C1040   1.491       .  S
Zn645       O649   1.927       .  S
Zn645       O650   2.010       .  S
Zn645       O654   1.982       .  S
Zn645       O661   1.985       .  S
Zn646       O649   1.954       .  S
Zn646       O651   2.014   1_565  S
Zn646       O653   2.038       .  S
Zn646       O657   2.012       .  S
Zn647       O649   1.974       .  S
Zn647       O652   2.061       .  S
Zn647       O655   2.033       .  S
Zn647       O658   2.083       .  S
Zn648       O649   1.934       .  S
Zn648       O656   1.999       .  S
Zn648       O659   2.007       .  S
Zn648       O660   2.012       .  S
O650        C662   1.271       .  A
O651        C663   1.276       .  A
O652        C664   1.279       .  A
O653        C662   1.275       .  A
O654        C664   1.272       .  A
O655        C663   1.278   1_565  A
O656        C665   1.272       .  A
O657        C666   1.274       .  A
O658        C665   1.280       .  A
O659        C666   1.274       .  A
O660        C667   1.273       .  A
O661        C667   1.270       .  A
C662        C973   1.490       .  S
C663       C2202   1.484       .  S
C664       C1589   1.471       .  S
C665       C1015   1.492       .  S
C666       C1085   1.489   1_565  S
C667       C1505   1.473       .  S
Zn668       O672   1.958       .  S
Zn668       O673   2.007       .  S
Zn668       O677   2.049       .  S
Zn668       O684   2.041       .  S
Zn669       O672   1.960       .  S
Zn669       O674   2.018       .  S
Zn669       O676   2.033       .  S
Zn669       O680   2.055       .  S
Zn670       O672   1.941       .  S
Zn670       O675   1.997       .  S
Zn670       O678   2.010       .  S
Zn670       O681   2.000       .  S
Zn671       O672   1.933       .  S
Zn671       O679   2.039       .  S
Zn671       O682   2.009       .  S
Zn671       O683   2.010       .  S
O673        C685   1.274       .  A
O674        C686   1.273       .  A
O675        C687   1.270       .  A
O676        C685   1.278       .  A
O677        C687   1.278       .  A
O678        C686   1.273       .  A
O679        C688   1.277       .  A
O680        C689   1.278       .  A
O681        C688   1.273       .  A
O682        C689   1.274       .  A
O683        C690   1.275       .  A
O684        C690   1.276       .  A
C685       C1421   1.484       .  S
C686       C1561   1.483       .  S
C687        C970   1.489       .  S
C688       C1001   1.491       .  S
C689       C1096   1.493       .  S
C690        C956   1.481       .  S
Zn691       O695   1.942       .  S
Zn691       O696   2.003       .  S
Zn691       O700   2.018       .  S
Zn691       O707   1.985       .  S
Zn692       O695   1.934       .  S
Zn692       O697   2.022       .  S
Zn692       O699   2.009   1_565  S
Zn692       O703   1.999   1_565  S
Zn693       O695   1.946       .  S
Zn693       O698   1.995       .  S
Zn693       O701   2.014       .  S
Zn693       O704   2.008       .  S
Zn694       O695   1.958       .  S
Zn694       O702   2.005       .  S
Zn694       O705   2.046   1_556  S
Zn694       O706   2.064   1_556  S
O696        C708   1.274       .  A
O697        C709   1.273       .  A
O698        C710   1.270       .  A
O699        C708   1.274   1_545  A
O700        C710   1.273       .  A
O701        C709   1.273       .  A
O702        C711   1.276       .  A
O703        C712   1.274       .  A
O704        C711   1.274       .  A
O705        C712   1.277   1_564  A
O706        C713   1.279       .  A
O707        C713   1.270   1_556  A
C708        C931   1.477   1_565  S
C709        C917   1.479       .  S
C710       C1953   1.468       .  S
C711       C1729   1.478       .  S
C712       C1197   1.488       .  S
C713        C942   1.497       .  S
Zn714       O718   1.922       .  S
Zn714       O719   2.021       .  S
Zn714       O723   2.008       .  S
Zn714       O730   2.003       .  S
Zn715       O718   1.948       .  S
Zn715       O720   1.996       .  S
Zn715       O722   2.019       .  S
Zn715       O726   2.006       .  S
Zn716       O718   1.947       .  S
Zn716       O721   2.039       .  S
Zn716       O724   2.055       .  S
Zn716       O727   2.006       .  S
Zn717       O718   1.969       .  S
Zn717       O725   2.043       .  S
Zn717       O728   1.995       .  S
Zn717       O729   2.062       .  S
O719        C731   1.275       .  A
O720        C732   1.270       .  A
O721        C733   1.276       .  A
O722        C731   1.275       .  A
O723        C733   1.274       .  A
O724        C732   1.278       .  A
O725        C734   1.278       .  A
O726        C735   1.273       .  A
O727        C734   1.276       .  A
O728        C735   1.271       .  A
O729        C736   1.277       .  A
O730        C736   1.274       .  A
C731        C903   1.482       .  S
C732        C945   1.493       .  S
C733       C1113   1.478       .  S
C734       C1687   1.489       .  S
C735       C1866   1.466       .  S
C736        C889   1.500       .  S
Zn737       O741   1.930       .  S
Zn737       O742   1.997       .  S
Zn737       O746   1.983       .  S
Zn737       O753   1.973       .  S
Zn738       O741   1.937       .  S
Zn738       O743   2.017       .  S
Zn738       O745   2.027       .  S
Zn738       O749   1.994       .  S
Zn739       O741   1.929       .  S
Zn739       O744   2.011       .  S
Zn739       O747   2.025       .  S
Zn739       O750   1.996       .  S
Zn740       O741   1.973       .  S
Zn740       O748   2.075       .  S
Zn740       O751   2.039       .  S
Zn740       O752   2.067       .  S
O742        C754   1.270       .  A
O743        C755   1.274       .  A
O744        C756   1.273       .  A
O745        C754   1.274       .  A
O746        C756   1.269       .  A
O747        C755   1.275       .  A
O748        C757   1.280       .  A
O749        C758   1.275       .  A
O750        C757   1.273       .  A
O751        C758   1.277       .  A
O752        C759   1.279       .  A
O753        C759   1.270       .  A
C754        C872   1.485       .  S
C755        C858   1.484       .  S
C756       C1068   1.483       .  S
C757        C886   1.489       .  S
C758       C1908   1.489       .  S
C759        C959   1.468       .  S
Zn760       O764   1.919       .  S
Zn760       O765   1.987       .  S
Zn760       O769   1.968       .  S
Zn760       O776   1.996       .  S
Zn761       O764   1.942       .  S
Zn761       O766   2.003   1_556  S
Zn761       O768   2.033       .  S
Zn761       O772   2.036       .  S
Zn762       O764   1.967       .  S
Zn762       O767   2.064       .  S
Zn762       O770   2.059       .  S
Zn762       O773   2.036       .  S
Zn763       O764   1.944       .  S
Zn763       O771   2.015       .  S
Zn763       O774   1.985       .  S
Zn763       O775   2.030       .  S
O765        C777   1.270       .  A
O766        C778   1.274       .  A
O767        C779   1.279       .  A
O768        C777   1.274       .  A
O769        C779   1.271       .  A
O770        C778   1.279   1_556  A
O771        C780   1.276       .  A
O772        C781   1.277       .  A
O773        C780   1.277       .  A
O774        C781   1.271       .  A
O775        C782   1.274       .  A
O776        C782   1.270       .  A
C777       C1152   1.490       .  S
C778        C844   1.479       .  S
C779        C987   1.472       .  S
C780       C1166   1.493       .  S
C781        C928   1.479       .  S
C782        C875   1.488       .  S
Zn783       O787   1.923       .  S
Zn783       O788   2.027   1_545  S
Zn783       O792   1.994   1_545  S
Zn783       O799   2.002       .  S
Zn784       O787   1.935       .  S
Zn784       O789   1.966       .  S
Zn784       O791   2.011       .  S
Zn784       O795   2.003       .  S
Zn785       O787   1.965       .  S
Zn785       O790   2.047       .  S
Zn785       O793   2.052       .  S
Zn785       O796   2.017       .  S
Zn786       O787   1.951       .  S
Zn786       O794   2.023       .  S
Zn786       O797   2.008       .  S
Zn786       O798   2.038       .  S
O788        C800   1.275   1_565  A
O789        C801   1.269       .  A
O790        C802   1.277   1_545  A
O791        C800   1.272       .  A
O792        C802   1.273       .  A
O793        C801   1.278       .  A
O794        C803   1.277       .  A
O795        C804   1.272       .  A
O796        C803   1.275       .  A
O797        C804   1.271       .  A
O798        C805   1.276       .  A
O799        C805   1.274       .  A
C800        C861   1.489   1_545  S
C801        C833   1.484       .  S
C802       C1841   1.489       .  S
C803       C1264   1.485       .  S
C804       C1183   1.486       .  S
C805        C914   1.491       .  S
Zn806       O810   1.924       .  S
Zn806       O811   1.975       .  S
Zn806       O815   1.996       .  S
Zn806       O822   1.965       .  S
Zn807       O810   1.975       .  S
Zn807       O812   2.051       .  S
Zn807       O814   2.056       .  S
Zn807       O818   2.052       .  S
Zn808       O810   1.935       .  S
Zn808       O813   2.013       .  S
Zn808       O816   1.991       .  S
Zn808       O819   1.996       .  S
Zn809       O810   1.953       .  S
Zn809       O817   2.042       .  S
Zn809       O820   2.001       .  S
Zn809       O821   2.032       .  S
O811        C823   1.271       .  A
O812        C824   1.276       .  A
O813        C825   1.273       .  A
O814        C823   1.278       .  A
O815        C825   1.270       .  A
O816        C824   1.273       .  A
O817        C826   1.277       .  A
O818        C827   1.278       .  A
O819        C826   1.271       .  A
O820        C827   1.274       .  A
O821        C828   1.274       .  A
O822        C828   1.267       .  A
C823       C1334   1.471       .  S
C824       C1054   1.495       .  S
C825        C830   1.475       .  S
C826        C900   1.484       .  S
C827        C847   1.470       .  S
C828       C1222   1.481       .  S
C829        C830   1.407       .  A
C829        C834   1.403       .  A
C829        H836   1.083       .  S
C830        C831   1.405       .  A
C831        C832   1.395       .  A
C831        N838   1.430       .  S
C832        C833   1.410       .  A
C832        H837   1.083       .  S
C833        C834   1.411       .  A
C834        N835   1.429       .  S
N835        O839   1.262       .  A
N835        O840   1.262       .  A
N838        O842   1.262       .  A
N838        O841   1.262       .  A
C843        C844   1.405       .  A
C843        C848   1.408       .  A
C843        H850   1.083       .  S
C844        C845   1.411       .  A
C845        C846   1.397       .  A
C845        N852   1.428       .  S
C846        C847   1.396       .  A
C846        H851   1.084       .  S
C847        C848   1.409       .  A
C848        N849   1.428       .  S
N849        O853   1.261       .  A
N849        O854   1.262       .  A
N852        O856   1.261       .  A
N852        O855   1.262       .  A
C857        C858   1.403       .  A
C857        C862   1.401   1_565  A
C857        H864   1.083   1_565  S
C858        C859   1.413       .  A
C859        C860   1.403       .  A
C859        N866   1.431       .  S
C860        C861   1.406       .  A
C860        H865   1.083       .  S
C861        C862   1.416   1_565  A
C862        N863   1.430       .  S
N863        O867   1.262       .  A
N863        O868   1.262       .  A
N866        O870   1.262       .  A
N866        O869   1.262       .  A
C871        C872   1.406       .  A
C871        C876   1.402   1_565  A
C871        H878   1.083       .  S
C872        C873   1.414       .  A
C873        C874   1.401   1_565  A
C873        N880   1.434       .  S
C874        C875   1.406       .  A
C874        H879   1.083       .  S
C875        C876   1.413       .  A
C876        N877   1.429       .  S
N877        O881   1.262       .  A
N877        O882   1.262       .  A
N880        O884   1.263       .  A
N880        O883   1.262       .  A
C885        C886   1.406       .  A
C885        C890   1.414       .  A
C885        H892   1.083       .  S
C886        C887   1.411       .  A
C887        C888   1.395       .  A
C887        N894   1.430       .  S
C888        C889   1.407       .  A
C888        H893   1.083       .  S
C889        C890   1.419       .  A
C890        N891   1.430       .  S
N891        O895   1.262       .  A
N891        O896   1.262       .  A
N894        O898   1.262       .  A
N894        O897   1.262       .  A
C899        C900   1.407       .  A
C899        C904   1.401   1_545  A
C899        H906   1.083       .  S
C900        C901   1.411       .  A
C901        C902   1.402   1_545  A
C901        N908   1.429       .  S
C902        C903   1.406       .  A
C902        H907   1.083       .  S
C903        C904   1.410       .  A
C904        N905   1.430       .  S
N905        O909   1.262       .  A
N905        O910   1.262       .  A
N908        O912   1.262       .  A
N908        O911   1.262       .  A
C913        C914   1.408   1_565  A
C913        C918   1.400       .  A
C913        H920   1.083       .  S
C914        C915   1.416       .  A
C915        C916   1.404       .  A
C915        N922   1.429       .  S
C916        C917   1.402   1_545  A
C916        H921   1.083       .  S
C917        C918   1.411       .  A
C918        N919   1.433       .  S
N919        O923   1.262       .  A
N919        O924   1.263       .  A
N922        O926   1.262       .  A
N922        O925   1.262       .  A
C927        C928   1.407       .  A
C927        C932   1.398       .  A
C927        H934   1.083       .  S
C928        C929   1.410       .  A
C929        C930   1.399       .  A
C929        N936   1.429       .  S
C930        C931   1.405       .  A
C930        H935   1.084   1_545  S
C931        C932   1.410       .  A
C932        N933   1.430       .  S
N933        O937   1.262       .  A
N933        O938   1.262       .  A
N936        O940   1.262   1_545  A
N936        O939   1.262   1_556  A
C941        C942   1.412       .  A
C941        C946   1.401       .  A
C941        H948   1.083       .  S
C942        C943   1.413       .  A
C943        C944   1.406       .  A
C943        N950   1.429       .  S
C944        C945   1.411       .  A
C944        H949   1.083       .  S
C945        C946   1.409       .  A
C946        N947   1.429       .  S
N947        O951   1.262       .  A
N947        O952   1.262       .  A
N950        O954   1.262       .  A
N950        O953   1.262       .  A
C955        C956   1.405       .  A
C955        C960   1.406       .  A
C955        H962   1.083       .  S
C956        C957   1.414       .  A
C957        C958   1.400       .  A
C957        N964   1.434       .  S
C958        C959   1.398       .  A
C958        H963   1.084       .  S
C959        C960   1.411       .  A
C960        N961   1.432       .  S
N961        O965   1.262       .  A
N961        O966   1.262       .  A
N964        O968   1.263       .  A
N964        O967   1.262       .  A
C969        C970   1.402       .  A
C969        C974   1.402       .  A
C969        H976   1.083       .  S
C970        C971   1.418       .  A
C971        C972   1.404       .  A
C971        N978   1.430       .  S
C972        C973   1.403       .  A
C972        H977   1.083       .  S
C973        C974   1.415       .  A
C974        N975   1.427       .  S
N975        O979   1.262       .  A
N975        O980   1.262       .  A
N978        O982   1.262       .  A
N978        O981   1.262       .  A
C983        C984   1.407       .  A
C983        C988   1.394       .  A
C983        H990   1.083       .  S
C984        C985   1.417       .  A
C985        C986   1.409       .  A
C985        N992   1.429       .  S
C986        C987   1.403       .  A
C986        H991   1.083       .  S
C987        C988   1.408       .  A
C988        N989   1.434       .  S
N989        O993   1.262       .  A
N989        O994   1.262       .  A
N992        O996   1.262       .  A
N992        O995   1.262       .  A
C997        C998   1.405       .  A
C997       C1002   1.398   1_545  A
C997       H1004   1.081       .  S
C998        C999   1.414       .  A
C999       C1000   1.406   1_545  A
C999       N1006   1.430       .  S
C1000      C1001   1.408       .  A
C1000      H1005   1.082       .  S
C1001      C1002   1.416       .  A
C1002      N1003   1.433       .  S
N1003      O1007   1.262       .  A
N1003      O1008   1.262       .  A
N1006      O1010   1.262       .  A
N1006      O1009   1.262       .  A
C1011      C1012   1.401   1_565  A
C1011      C1016   1.400       .  A
C1011      H1018   1.084       .  S
C1012      C1013   1.412       .  A
C1013      C1014   1.414       .  A
C1013      N1020   1.429       .  S
C1014      C1015   1.408   1_545  A
C1014      H1019   1.083       .  S
C1015      C1016   1.415       .  A
C1016      N1017   1.433       .  S
N1017      O1021   1.262       .  A
N1017      O1022   1.262       .  A
N1020      O1024   1.262       .  A
N1020      O1023   1.262       .  A
C1025      C1026   1.399       .  A
C1025      C1030   1.403       .  A
C1025      H1032   1.083       .  S
C1026      C1027   1.414       .  A
C1027      C1028   1.402       .  A
C1027      N1034   1.434       .  S
C1028      C1029   1.405       .  A
C1028      H1033   1.083       .  S
C1029      C1030   1.419       .  A
C1030      N1031   1.428       .  S
N1031      O1035   1.262       .  A
N1031      O1036   1.262   1_556  A
N1034      O1038   1.262       .  A
N1034      O1037   1.262       .  A
C1039      C1040   1.408       .  A
C1039      C1044   1.400       .  A
C1039      H1046   1.083       .  S
C1040      C1041   1.416       .  A
C1041      C1042   1.406       .  A
C1041      N1048   1.429       .  S
C1042      C1043   1.401       .  A
C1042      H1047   1.084       .  S
C1043      C1044   1.408       .  A
C1044      N1045   1.432       .  S
N1045      O1049   1.262       .  A
N1045      O1050   1.262       .  A
N1048      O1052   1.262       .  A
N1048      O1051   1.262       .  A
C1053      C1054   1.408       .  A
C1053      C1058   1.395       .  A
C1053      H1060   1.083       .  S
C1054      C1055   1.420       .  A
C1055      C1056   1.410       .  A
C1055      N1062   1.430       .  S
C1056      C1057   1.403       .  A
C1056      H1061   1.083       .  S
C1057      C1058   1.410       .  A
C1058      N1059   1.436       .  S
N1059      O1063   1.262       .  A
N1059      O1064   1.263       .  A
N1062      O1066   1.262       .  A
N1062      O1065   1.262       .  A
C1067      C1068   1.410       .  A
C1067      C1072   1.401   1_565  A
C1067      H1074   1.083       .  S
C1068      C1069   1.412       .  A
C1069      C1070   1.395   1_565  A
C1069      N1076   1.432   1_565  S
C1070      C1071   1.407       .  A
C1070      H1075   1.083       .  S
C1071      C1072   1.411       .  A
C1072      N1073   1.430   1_545  S
N1073      O1077   1.262   1_565  A
N1073      O1078   1.262       .  A
N1076      O1080   1.262   1_545  A
N1076      O1079   1.262       .  A
C1081      C1082   1.403       .  A
C1081      C1086   1.401       .  A
C1081      H1088   1.045       .  S
C1082      C1083   1.404       .  A
C1083      C1084   1.405       .  A
C1083      N1090   1.433       .  S
C1084      C1085   1.413       .  A
C1084      H1089   1.066       .  S
C1085      C1086   1.415       .  A
C1086      N1087   1.433   1_545  S
N1087      O1091   1.263       .  A
N1087      O1092   1.262       .  A
N1090      O1094   1.263       .  A
N1090      O1093   1.262       .  A
C1095      C1096   1.410       .  A
C1095      C1100   1.408       .  A
C1095      H1102   1.083       .  S
C1096      C1097   1.416       .  A
C1097      C1098   1.399       .  A
C1097      N1104   1.429       .  S
C1098      C1099   1.399       .  A
C1098      H1103   1.084       .  S
C1099      C1100   1.408       .  A
C1100      N1101   1.428       .  S
N1101      O1105   1.262   1_556  A
N1101      O1106   1.262   1_556  A
N1104      O1108   1.262       .  A
N1104      O1107   1.261       .  A
C1109      C1110   1.400       .  A
C1109      C1114   1.401       .  A
C1109      H1116   1.084       .  S
C1110      C1111   1.411       .  A
C1111      C1112   1.405       .  A
C1111      N1118   1.434       .  S
C1112      C1113   1.403       .  A
C1112      H1117   1.084       .  S
C1113      C1114   1.413       .  A
C1114      N1115   1.434       .  S
N1115      O1119   1.262       .  A
N1115      O1120   1.262       .  A
N1118      O1122   1.262       .  A
N1118      O1121   1.262       .  A
C1123      C1124   1.405       .  A
C1123      C1128   1.401   1_565  A
C1123      H1130   1.083       .  S
C1124      C1125   1.412       .  A
C1125      C1126   1.401   1_565  A
C1125      N1132   1.430       .  S
C1126      C1127   1.406       .  A
C1126      H1131   1.083       .  S
C1127      C1128   1.414       .  A
C1128      N1129   1.430       .  S
N1129      O1133   1.261       .  A
N1129      O1134   1.262       .  A
N1132      O1136   1.262       .  A
N1132      O1135   1.262       .  A
C1137      C1138   1.412       .  A
C1137      C1142   1.404       .  A
C1137      H1144   1.083       .  S
C1138      C1139   1.416       .  A
C1139      C1140   1.399       .  A
C1139      N1146   1.429   1_565  S
C1140      C1141   1.400       .  A
C1140      H1145   1.084       .  S
C1141      C1142   1.406       .  A
C1142      N1143   1.433       .  S
N1143      O1147   1.262   1_554  A
N1143      O1148   1.263       .  A
N1146      O1150   1.262       .  A
N1146      O1149   1.262       .  A
C1151      C1152   1.412       .  A
C1151      C1156   1.401   1_545  A
C1151      H1158   1.083       .  S
C1152      C1153   1.416   1_556  A
C1153      C1154   1.398   1_545  A
C1153      N1160   1.433       .  S
C1154      C1155   1.405       .  A
C1154      H1159   1.083       .  S
C1155      C1156   1.409   1_554  A
C1156      N1157   1.429       .  S
N1157      O1161   1.262       .  A
N1157      O1162   1.262       .  A
N1160      O1164   1.262       .  A
N1160      O1163   1.262       .  A
C1165      C1166   1.409       .  A
C1165      C1170   1.402       .  A
C1165      H1172   1.083       .  S
C1166      C1167   1.417       .  A
C1167      C1168   1.403       .  A
C1167      N1174   1.429       .  S
C1168      C1169   1.403       .  A
C1168      H1173   1.084       .  S
C1169      C1170   1.409       .  A
C1170      N1171   1.430       .  S
N1171      O1175   1.262       .  A
N1171      O1176   1.262       .  A
N1174      O1178   1.262       .  A
N1174      O1177   1.262       .  A
C1179      C1180   1.405       .  A
C1179      C1184   1.397       .  A
C1179      H1186   1.083       .  S
C1180      C1181   1.416       .  A
C1181      C1182   1.401       .  A
C1181      N1188   1.433       .  S
C1182      C1183   1.406       .  A
C1182      H1187   1.083       .  S
C1183      C1184   1.414       .  A
C1184      N1185   1.429       .  S
N1185      O1189   1.261       .  A
N1185      O1190   1.262       .  A
N1188      O1192   1.263       .  A
N1188      O1191   1.262       .  A
C1193      C1194   1.403       .  A
C1193      C1198   1.409       .  A
C1193      H1200   1.083       .  S
C1194      C1195   1.409   1_554  A
C1195      C1196   1.397       .  A
C1195      N1202   1.435       .  S
C1196      C1197   1.405       .  A
C1196      H1201   1.083       .  S
C1197      C1198   1.416   1_556  A
C1198      N1199   1.430       .  S
N1199      O1203   1.262       .  A
N1199      O1204   1.262       .  A
N1202      O1206   1.262       .  A
N1202      O1205   1.262       .  A
C1207      C1208   1.409       .  A
C1207      C1212   1.400       .  A
C1207      H1214   1.082       .  S
C1208      C1209   1.412       .  A
C1209      C1210   1.405       .  A
C1209      N1216   1.432       .  S
C1210      C1211   1.409       .  A
C1210      H1215   1.083       .  S
C1211      C1212   1.409       .  A
C1212      N1213   1.429       .  S
N1213      O1217   1.262       .  A
N1213      O1218   1.262       .  A
N1216      O1220   1.262       .  A
N1216      O1219   1.262       .  A
C1221      C1222   1.408       .  A
C1221      C1226   1.397       .  A
C1221      H1228   1.077       .  S
C1222      C1223   1.408       .  A
C1223      C1224   1.399       .  A
C1223      N1230   1.430       .  S
C1224      C1225   1.411       .  A
C1224      H1229   1.080       .  S
C1225      C1226   1.411       .  A
C1226      N1227   1.431       .  S
N1227      O1231   1.262       .  A
N1227      O1232   1.262       .  A
N1230      O1234   1.262       .  A
N1230      O1233   1.262       .  A
C1235      C1236   1.402       .  A
C1235      C1240   1.402       .  A
C1235      H1242   1.083       .  S
C1236      C1237   1.415       .  A
C1237      C1238   1.400       .  A
C1237      N1244   1.430       .  S
C1238      C1239   1.403       .  A
C1238      H1243   1.083       .  S
C1239      C1240   1.417       .  A
C1240      N1241   1.430       .  S
N1241      O1245   1.262       .  A
N1241      O1246   1.262       .  A
N1244      O1248   1.262       .  A
N1244      O1247   1.262       .  A
C1249      C1250   1.400       .  A
C1249      C1254   1.396       .  A
C1249      H1256   1.084       .  S
C1250      C1251   1.414       .  A
C1251      C1252   1.418       .  A
C1251      N1258   1.430       .  S
C1252      C1253   1.411       .  A
C1252      H1257   1.083       .  S
C1253      C1254   1.419       .  A
C1254      N1255   1.432       .  S
N1255      O1259   1.262       .  A
N1255      O1260   1.262       .  A
N1258      O1262   1.262       .  A
N1258      O1261   1.262       .  A
C1263      C1264   1.405       .  A
C1263      C1268   1.402       .  A
C1263      H1270   1.083       .  S
C1264      C1265   1.413       .  A
C1265      C1266   1.401       .  A
C1265      N1272   1.430       .  S
C1266      C1267   1.404       .  A
C1266      H1271   1.083       .  S
C1267      C1268   1.413       .  A
C1268      N1269   1.433       .  S
N1269      O1273   1.262       .  A
N1269      O1274   1.262       .  A
N1272      O1276   1.262       .  A
N1272      O1275   1.262       .  A
C1277      C1278   1.406       .  A
C1277      C1282   1.405       .  A
C1277      H1284   1.083       .  S
C1278      C1279   1.413       .  A
C1279      C1280   1.398       .  A
C1279      N1286   1.430       .  S
C1280      C1281   1.404       .  A
C1280      H1285   1.083       .  S
C1281      C1282   1.416       .  A
C1282      N1283   1.433       .  S
N1283      O1287   1.263       .  A
N1283      O1288   1.262       .  A
N1286      O1290   1.262       .  A
N1286      O1289   1.262       .  A
C1291      C1292   1.402       .  A
C1291      C1296   1.398       .  A
C1291      H1298   1.084       .  S
C1292      C1293   1.414       .  A
C1293      C1294   1.409       .  A
C1293      N1300   1.436       .  S
C1294      C1295   1.403       .  A
C1294      H1299   1.083       .  S
C1295      C1296   1.407       .  A
C1296      N1297   1.432       .  S
N1297      O1301   1.262   1_556  A
N1297      O1302   1.262       .  A
N1300      O1304   1.263       .  A
N1300      O1303   1.262       .  A
C1305      C1306   1.409       .  A
C1305      C1310   1.399       .  A
C1305      H1312   1.083       .  S
C1306      C1307   1.415       .  A
C1307      C1308   1.401       .  A
C1307      N1314   1.429       .  S
C1308      C1309   1.402       .  A
C1308      H1313   1.084       .  S
C1309      C1310   1.406       .  A
C1310      N1311   1.431       .  S
N1311      O1315   1.262       .  A
N1311      O1316   1.262       .  A
N1314      O1318   1.262   1_554  A
N1314      O1317   1.262   1_554  A
C1319      C1320   1.397       .  A
C1319      C1324   1.397       .  A
C1319      H1326   1.084       .  S
C1320      C1321   1.408       .  A
C1321      C1322   1.408       .  A
C1321      N1328   1.428       .  S
C1322      C1323   1.409       .  A
C1322      H1327   1.083       .  S
C1323      C1324   1.417       .  A
C1324      N1325   1.428       .  S
N1325      O1329   1.261       .  A
N1325      O1330   1.262       .  A
N1328      O1332   1.262       .  A
N1328      O1331   1.262       .  A
C1333      C1334   1.400       .  A
C1333      C1338   1.407       .  A
C1333      H1340   1.083       .  S
C1334      C1335   1.409       .  A
C1335      C1336   1.396       .  A
C1335      N1342   1.435       .  S
C1336      C1337   1.405       .  A
C1336      H1341   1.083       .  S
C1337      C1338   1.421       .  A
C1338      N1339   1.431       .  S
N1339      O1343   1.262       .  A
N1339      O1344   1.262       .  A
N1342      O1346   1.262       .  A
N1342      O1345   1.262       .  A
C1347      C1348   1.402       .  A
C1347      C1352   1.401       .  A
C1347      H1354   1.084       .  S
C1348      C1349   1.411       .  A
C1349      C1350   1.402       .  A
C1349      N1356   1.430       .  S
C1350      C1351   1.408       .  A
C1350      H1355   1.083       .  S
C1351      C1352   1.418       .  A
C1352      N1353   1.432       .  S
N1353      O1357   1.262       .  A
N1353      O1358   1.262       .  A
N1356      O1360   1.262       .  A
N1356      O1359   1.262       .  A
C1361      C1362   1.408       .  A
C1361      C1366   1.403       .  A
C1361      H1368   1.083       .  S
C1362      C1363   1.414       .  A
C1363      C1364   1.402       .  A
C1363      N1370   1.433       .  S
C1364      C1365   1.406       .  A
C1364      H1369   1.083       .  S
C1365      C1366   1.410       .  A
C1366      N1367   1.430       .  S
N1367      O1371   1.262       .  A
N1367      O1372   1.262       .  A
N1370      O1374   1.262       .  A
N1370      O1373   1.262       .  A
C1375      C1376   1.402       .  A
C1375      C1380   1.394       .  A
C1375      H1382   1.083       .  S
C1376      C1377   1.417       .  A
C1377      C1378   1.406       .  A
C1377      N1384   1.428       .  S
C1378      C1379   1.404       .  A
C1378      H1383   1.083       .  S
C1379      C1380   1.411       .  A
C1380      N1381   1.428       .  S
N1381      O1385   1.261       .  A
N1381      O1386   1.262       .  A
N1384      O1388   1.262       .  A
N1384      O1387   1.262       .  A
C1389      C1390   1.407       .  A
C1389      C1394   1.404       .  A
C1389      H1396   1.083       .  S
C1390      C1391   1.416   1_556  A
C1391      C1392   1.399       .  A
C1391      N1398   1.431       .  S
C1392      C1393   1.399       .  A
C1392      H1397   1.084       .  S
C1393      C1394   1.409   1_554  A
C1394      N1395   1.434       .  S
N1395      O1399   1.262       .  A
N1395      O1400   1.262       .  A
N1398      O1402   1.262       .  A
N1398      O1401   1.262       .  A
C1403      C1404   1.399       .  A
C1403      C1408   1.402       .  A
C1403      H1410   1.084       .  S
C1404      C1405   1.406       .  A
C1405      C1406   1.399       .  A
C1405      N1412   1.429       .  S
C1406      C1407   1.406       .  A
C1406      H1411   1.083       .  S
C1407      C1408   1.415       .  A
C1408      N1409   1.433       .  S
N1409      O1413   1.262       .  A
N1409      O1414   1.262       .  A
N1412      O1416   1.262       .  A
N1412      O1415   1.262       .  A
C1417      C1418   1.404       .  A
C1417      C1422   1.401       .  A
C1417      H1424   1.083       .  S
C1418      C1419   1.415       .  A
C1419      C1420   1.403       .  A
C1419      N1426   1.433       .  S
C1420      C1421   1.404       .  A
C1420      H1425   1.083       .  S
C1421      C1422   1.414       .  A
C1422      N1423   1.431       .  S
N1423      O1427   1.262       .  A
N1423      O1428   1.262       .  A
N1426      O1430   1.262       .  A
N1426      O1429   1.262       .  A
C1431      C1432   1.402       .  A
C1431      C1436   1.399       .  A
C1431      H1438   1.083       .  S
C1432      C1433   1.415       .  A
C1433      C1434   1.397       .  A
C1433      N1440   1.429       .  S
C1434      C1435   1.404       .  A
C1434      H1439   1.083       .  S
C1435      C1436   1.419       .  A
C1436      N1437   1.434       .  S
N1437      O1441   1.262       .  A
N1437      O1442   1.262       .  A
N1440      O1444   1.261       .  A
N1440      O1443   1.262       .  A
C1445      C1446   1.404       .  A
C1445      C1450   1.403       .  A
C1445      H1452   1.083       .  S
C1446      C1447   1.420       .  A
C1447      C1448   1.404       .  A
C1447      N1454   1.429       .  S
C1448      C1449   1.400       .  A
C1448      H1453   1.083       .  S
C1449      C1450   1.415       .  A
C1450      N1451   1.436       .  S
N1451      O1455   1.263       .  A
N1451      O1456   1.262       .  A
N1454      O1458   1.262       .  A
N1454      O1457   1.262       .  A
C1459      C1460   1.399       .  A
C1459      C1464   1.396       .  A
C1459      H1466   1.084       .  S
C1460      C1461   1.415       .  A
C1461      C1462   1.415       .  A
C1461      N1468   1.433       .  S
C1462      C1463   1.408       .  A
C1462      H1467   1.083       .  S
C1463      C1464   1.414       .  A
C1464      N1465   1.432       .  S
N1465      O1469   1.262       .  A
N1465      O1470   1.262       .  A
N1468      O1472   1.263       .  A
N1468      O1471   1.262       .  A
C1473      C1474   1.400       .  A
C1473      C1478   1.405       .  A
C1473      H1480   1.084       .  S
C1474      C1475   1.405       .  A
C1475      C1476   1.396       .  A
C1475      N1482   1.430       .  S
C1476      C1477   1.407       .  A
C1476      H1481   1.083       .  S
C1477      C1478   1.418       .  A
C1478      N1479   1.429       .  S
N1479      O1483   1.262       .  A
N1479      O1484   1.262       .  A
N1482      O1486   1.262       .  A
N1482      O1485   1.262       .  A
C1487      C1488   1.398       .  A
C1487      C1492   1.397       .  A
C1487      H1494   1.084       .  S
C1488      C1489   1.406       .  A
C1489      C1490   1.403       .  A
C1489      N1496   1.431       .  S
C1490      C1491   1.410       .  A
C1490      H1495   1.083       .  S
C1491      C1492   1.417       .  A
C1492      N1493   1.431       .  S
N1493      O1497   1.262       .  A
N1493      O1498   1.262       .  A
N1496      O1500   1.262       .  A
N1496      O1499   1.262       .  A
C1501      C1502   1.401       .  A
C1501      C1506   1.395       .  A
C1501      H1508   1.080       .  S
C1502      C1503   1.414       .  A
C1503      C1504   1.399       .  A
C1503      N1510   1.435       .  S
C1504      C1505   1.402       .  A
C1504      H1509   1.081       .  S
C1505      C1506   1.410       .  A
C1506      N1507   1.429       .  S
N1507      O1511   1.261       .  A
N1507      O1512   1.262       .  A
N1510      O1514   1.263       .  A
N1510      O1513   1.262       .  A
C1515      C1516   1.404       .  A
C1515      C1520   1.401       .  A
C1515      H1522   1.083       .  S
C1516      C1517   1.413   1_556  A
C1517      C1518   1.399       .  A
C1517      N1524   1.430       .  S
C1518      C1519   1.404       .  A
C1518      H1523   1.083       .  S
C1519      C1520   1.414   1_554  A
C1520      N1521   1.432       .  S
N1521      O1525   1.262       .  A
N1521      O1526   1.262       .  A
N1524      O1528   1.262       .  A
N1524      O1527   1.262       .  A
C1529      C1530   1.407       .  A
C1529      C1534   1.405       .  A
C1529      H1536   1.083       .  S
C1530      C1531   1.415       .  A
C1531      C1532   1.396       .  A
C1531      N1538   1.430       .  S
C1532      C1533   1.404       .  A
C1532      H1537   1.083       .  S
C1533      C1534   1.415       .  A
C1534      N1535   1.431       .  S
N1535      O1539   1.262       .  A
N1535      O1540   1.262       .  A
N1538      O1542   1.262       .  A
N1538      O1541   1.262       .  A
C1543      C1544   1.407       .  A
C1543      C1548   1.399       .  A
C1543      H1550   1.084       .  S
C1544      C1545   1.409       .  A
C1545      C1546   1.404       .  A
C1545      N1552   1.429       .  S
C1546      C1547   1.409       .  A
C1546      H1551   1.083       .  S
C1547      C1548   1.412       .  A
C1548      N1549   1.432       .  S
N1549      O1553   1.262       .  A
N1549      O1554   1.262       .  A
N1552      O1556   1.262       .  A
N1552      O1555   1.262       .  A
C1557      C1558   1.404       .  A
C1557      C1562   1.400       .  A
C1557      H1564   1.083       .  S
C1558      C1559   1.415       .  A
C1559      C1560   1.403       .  A
C1559      N1566   1.436       .  S
C1560      C1561   1.405       .  A
C1560      H1565   1.083       .  S
C1561      C1562   1.414       .  A
C1562      N1563   1.432       .  S
N1563      O1567   1.262       .  A
N1563      O1568   1.262       .  A
N1566      O1570   1.263       .  A
N1566      O1569   1.262       .  A
C1571      C1572   1.402       .  A
C1571      C1576   1.404       .  A
C1571      H1578   1.083       .  S
C1572      C1573   1.413       .  A
C1573      C1574   1.401       .  A
C1573      N1580   1.427       .  S
C1574      C1575   1.402       .  A
C1574      H1579   1.083       .  S
C1575      C1576   1.419       .  A
C1576      N1577   1.430       .  S
N1577      O1581   1.262       .  A
N1577      O1582   1.262       .  A
N1580      O1584   1.261       .  A
N1580      O1583   1.262       .  A
C1585      C1586   1.405       .  A
C1585      C1590   1.394       .  A
C1585      H1592   1.084       .  S
C1586      C1587   1.414       .  A
C1587      C1588   1.407       .  A
C1587      N1594   1.429       .  S
C1588      C1589   1.404       .  A
C1588      H1593   1.083       .  S
C1589      C1590   1.406       .  A
C1590      N1591   1.430       .  S
N1591      O1595   1.262       .  A
N1591      O1596   1.262       .  A
N1594      O1598   1.262       .  A
N1594      O1597   1.262       .  A
C1599      C1600   1.410       .  A
C1599      C1604   1.402       .  A
C1599      H1606   1.083       .  S
C1600      C1601   1.419       .  A
C1601      C1602   1.398       .  A
C1601      N1608   1.432       .  S
C1602      C1603   1.398       .  A
C1602      H1607   1.084       .  S
C1603      C1604   1.407       .  A
C1604      N1605   1.430       .  S
N1605      O1609   1.262       .  A
N1605      O1610   1.262       .  A
N1608      O1612   1.262       .  A
N1608      O1611   1.263       .  A
C1613      C1614   1.404       .  A
C1613      C1618   1.396       .  A
C1613      H1620   1.084       .  S
C1614      C1615   1.412       .  A
C1615      C1616   1.408       .  A
C1615      N1622   1.430       .  S
C1616      C1617   1.404       .  A
C1616      H1621   1.083       .  S
C1617      C1618   1.409       .  A
C1618      N1619   1.436       .  S
N1619      O1623   1.262       .  A
N1619      O1624   1.263       .  A
N1622      O1626   1.262       .  A
N1622      O1625   1.262       .  A
C1627      C1628   1.406       .  A
C1627      C1632   1.399       .  A
C1627      H1634   1.083       .  S
C1628      C1629   1.417       .  A
C1629      C1630   1.404       .  A
C1629      N1636   1.431       .  S
C1630      C1631   1.401       .  A
C1630      H1635   1.084       .  S
C1631      C1632   1.406       .  A
C1632      N1633   1.429       .  S
N1633      O1637   1.262       .  A
N1633      O1638   1.262       .  A
N1636      O1640   1.262       .  A
N1636      O1639   1.262       .  A
C1641      C1642   1.405       .  A
C1641      C1646   1.402       .  A
C1641      H1648   1.083       .  S
C1642      C1643   1.418       .  A
C1643      C1644   1.402       .  A
C1643      N1650   1.429       .  S
C1644      C1645   1.401       .  A
C1644      H1649   1.083       .  S
C1645      C1646   1.415       .  A
C1646      N1647   1.437       .  S
N1647      O1651   1.263       .  A
N1647      O1652   1.262       .  A
N1650      O1654   1.262       .  A
N1650      O1653   1.262       .  A
C1655      C1656   1.399       .  A
C1655      C1660   1.399       .  A
C1655      H1662   1.084       .  S
C1656      C1657   1.406       .  A
C1657      C1658   1.399       .  A
C1657      N1664   1.430       .  S
C1658      C1659   1.405       .  A
C1658      H1663   1.083       .  S
C1659      C1660   1.412       .  A
C1660      N1661   1.430       .  S
N1661      O1665   1.262       .  A
N1661      O1666   1.262       .  A
N1664      O1668   1.262       .  A
N1664      O1667   1.262       .  A
C1669      C1670   1.408       .  A
C1669      C1674   1.396       .  A
C1669      H1676   1.083       .  S
C1670      C1671   1.418       .  A
C1671      C1672   1.406       .  A
C1671      N1678   1.428       .  S
C1672      C1673   1.401       .  A
C1672      H1677   1.083       .  S
C1673      C1674   1.406       .  A
C1674      N1675   1.431       .  S
N1675      O1679   1.262       .  A
N1675      O1680   1.262       .  A
N1678      O1682   1.262       .  A
N1678      O1681   1.262       .  A
C1683      C1684   1.402       .  A
C1683      C1688   1.397       .  A
C1683      H1690   1.084       .  S
C1684      C1685   1.411       .  A
C1685      C1686   1.408       .  A
C1685      N1692   1.431       .  S
C1686      C1687   1.410       .  A
C1686      H1691   1.083       .  S
C1687      C1688   1.415       .  A
C1688      N1689   1.435       .  S
N1689      O1693   1.263       .  A
N1689      O1694   1.263       .  A
N1692      O1696   1.262       .  A
N1692      O1695   1.262       .  A
C1697      C1698   1.404       .  A
C1697      C1702   1.407       .  A
C1697      H1704   1.083       .  S
C1698      C1699   1.415       .  A
C1699      C1700   1.397   1_455  A
C1699      N1706   1.431   1_455  S
C1700      C1701   1.402       .  A
C1700      H1705   1.083       .  S
C1701      C1702   1.417   1_655  A
C1702      N1703   1.429       .  S
N1703      O1707   1.262       .  A
N1703      O1708   1.262       .  A
N1706      O1710   1.262   1_655  A
N1706      O1709   1.262       .  A
C1711      C1712   1.396   1_556  A
C1711      C1716   1.395       .  A
C1711      H1718   1.085       .  S
C1712      C1713   1.409       .  A
C1713      C1714   1.408       .  A
C1713      N1720   1.429       .  S
C1714      C1715   1.408   1_554  A
C1714      H1719   1.083       .  S
C1715      C1716   1.417       .  A
C1716      N1717   1.433       .  S
N1717      O1721   1.262       .  A
N1717      O1722   1.262       .  A
N1720      O1724   1.262       .  A
N1720      O1723   1.262       .  A
C1725      C1726   1.405       .  A
C1725      C1730   1.400       .  A
C1725      H1732   1.083       .  S
C1726      C1727   1.412   1_556  A
C1727      C1728   1.396       .  A
C1727      N1734   1.428       .  S
C1728      C1729   1.403   1_554  A
C1728      H1733   1.084       .  S
C1729      C1730   1.414       .  A
C1730      N1731   1.430       .  S
N1731      O1735   1.262       .  A
N1731      O1736   1.262       .  A
N1734      O1738   1.262       .  A
N1734      O1737   1.261       .  A
C1739      C1740   1.409       .  A
C1739      C1744   1.400       .  A
C1739      H1746   1.082       .  S
C1740      C1741   1.412       .  A
C1741      C1742   1.393       .  A
C1741      N1748   1.431       .  S
C1742      C1743   1.406       .  A
C1742      H1747   1.082       .  S
C1743      C1744   1.411       .  A
C1744      N1745   1.431       .  S
N1745      O1749   1.262       .  A
N1745      O1750   1.262       .  A
N1748      O1752   1.262       .  A
N1748      O1751   1.262       .  A
C1753      C1754   1.399       .  A
C1753      C1758   1.402       .  A
C1753      H1760   1.084   1_455  S
C1754      C1755   1.406       .  A
C1755      C1756   1.400       .  A
C1755      N1762   1.429       .  S
C1756      C1757   1.411       .  A
C1756      H1761   1.083       .  S
C1757      C1758   1.421       .  A
C1758      N1759   1.434   1_455  S
N1759      O1763   1.262       .  A
N1759      O1764   1.262       .  A
N1762      O1766   1.262       .  A
N1762      O1765   1.262       .  A
C1767      C1768   1.412       .  A
C1767      C1772   1.411       .  A
C1767      H1774   1.083       .  S
C1768      C1769   1.419       .  A
C1769      C1770   1.396       .  A
C1769      N1776   1.430       .  S
C1770      C1771   1.400       .  A
C1770      H1775   1.084       .  S
C1771      C1772   1.410       .  A
C1772      N1773   1.429       .  S
N1773      O1777   1.262       .  A
N1773      O1778   1.262       .  A
N1776      O1780   1.262       .  A
N1776      O1779   1.262       .  A
C1781      C1782   1.405       .  A
C1781      C1786   1.398       .  A
C1781      H1788   1.083       .  S
C1782      C1783   1.416       .  A
C1783      C1784   1.405       .  A
C1783      N1790   1.429       .  S
C1784      C1785   1.404       .  A
C1784      H1789   1.083       .  S
C1785      C1786   1.414       .  A
C1786      N1787   1.435       .  S
N1787      O1791   1.262       .  A
N1787      O1792   1.262       .  A
N1790      O1794   1.262       .  A
N1790      O1793   1.262       .  A
C1795      C1796   1.405       .  A
C1795      C1800   1.401       .  A
C1795      H1802   1.099       .  S
C1796      C1797   1.416       .  A
C1797      C1798   1.398       .  A
C1797      N1804   1.433       .  S
C1798      C1799   1.402       .  A
C1798      H1803   1.102       .  S
C1799      C1800   1.415       .  A
C1800      N1801   1.430       .  S
N1801      O1805   1.262       .  A
N1801      O1806   1.262       .  A
N1804      O1808   1.262       .  A
N1804      O1807   1.262       .  A
C1809      C1810   1.409       .  A
C1809      C1814   1.400       .  A
C1809      H1816   1.084       .  S
C1810      C1811   1.410       .  A
C1811      C1812   1.405       .  A
C1811      N1818   1.430       .  S
C1812      C1813   1.410       .  A
C1812      H1817   1.083       .  S
C1813      C1814   1.409       .  A
C1814      N1815   1.429       .  S
N1815      O1819   1.262       .  A
N1815      O1820   1.262       .  A
N1818      O1822   1.262       .  A
N1818      O1821   1.262       .  A
C1823      C1824   1.403       .  A
C1823      C1828   1.396       .  A
C1823      H1830   1.084       .  S
C1824      C1825   1.414   1_655  A
C1825      C1826   1.411       .  A
C1825      N1832   1.428       .  S
C1826      C1827   1.405       .  A
C1826      H1831   1.083       .  S
C1827      C1828   1.408   1_455  A
C1828      N1829   1.431       .  S
N1829      O1833   1.262       .  A
N1829      O1834   1.262       .  A
N1832      O1836   1.262       .  A
N1832      O1835   1.262       .  A
C1837      C1838   1.398       .  A
C1837      C1842   1.393       .  A
C1837      H1844   1.084       .  S
C1838      C1839   1.410       .  A
C1839      C1840   1.410       .  A
C1839      N1846   1.431       .  S
C1840      C1841   1.410       .  A
C1840      H1845   1.083       .  S
C1841      C1842   1.416       .  A
C1842      N1843   1.432       .  S
N1843      O1847   1.262       .  A
N1843      O1848   1.262       .  A
N1846      O1850   1.262       .  A
N1846      O1849   1.262       .  A
C1851      C1852   1.407       .  A
C1851      C1856   1.404       .  A
C1851      H1858   1.083       .  S
C1852      C1853   1.412       .  A
C1853      C1854   1.401       .  A
C1853      N1860   1.429       .  S
C1854      C1855   1.406       .  A
C1854      H1859   1.084       .  S
C1855      C1856   1.414       .  A
C1856      N1857   1.431       .  S
N1857      O1861   1.262       .  A
N1857      O1862   1.262       .  A
N1860      O1864   1.262       .  A
N1860      O1863   1.262       .  A
C1865      C1866   1.404       .  A
C1865      C1870   1.401       .  A
C1865      H1872   1.083       .  S
C1866      C1867   1.407       .  A
C1867      C1868   1.395       .  A
C1867      N1874   1.430       .  S
C1868      C1869   1.403       .  A
C1868      H1873   1.084       .  S
C1869      C1870   1.408       .  A
C1870      N1871   1.432       .  S
N1871      O1875   1.262       .  A
N1871      O1876   1.262       .  A
N1874      O1878   1.262       .  A
N1874      O1877   1.262       .  A
C1879      C1880   1.408       .  A
C1879      C1884   1.401       .  A
C1879      H1886   1.083       .  S
C1880      C1881   1.415       .  A
C1881      C1882   1.401       .  A
C1881      N1888   1.432   1_655  S
C1882      C1883   1.405       .  A
C1882      H1887   1.083       .  S
C1883      C1884   1.410       .  A
C1884      N1885   1.432       .  S
N1885      O1889   1.262       .  A
N1885      O1890   1.262       .  A
N1888      O1892   1.262   1_455  A
N1888      O1891   1.262       .  A
C1893      C1894   1.403       .  A
C1893      C1898   1.406       .  A
C1893      H1900   1.083       .  S
C1894      C1895   1.409       .  A
C1895      C1896   1.394       .  A
C1895      N1902   1.432       .  S
C1896      C1897   1.408       .  A
C1896      H1901   1.083       .  S
C1897      C1898   1.417       .  A
C1898      N1899   1.428       .  S
N1899      O1903   1.261       .  A
N1899      O1904   1.262       .  A
N1902      O1906   1.262       .  A
N1902      O1905   1.262       .  A
C1907      C1908   1.407       .  A
C1907      C1912   1.393       .  A
C1907      H1914   1.083       .  S
C1908      C1909   1.419       .  A
C1909      C1910   1.406       .  A
C1909      N1916   1.430       .  S
C1910      C1911   1.400       .  A
C1910      H1915   1.083       .  S
C1911      C1912   1.404       .  A
C1912      N1913   1.431       .  S
N1913      O1917   1.262       .  A
N1913      O1918   1.262       .  A
N1916      O1920   1.262       .  A
N1916      O1919   1.262       .  A
C1921      C1922   1.404       .  A
C1921      C1926   1.398   1_455  A
C1921      H1928   1.084       .  S
C1922      C1923   1.409       .  A
C1923      C1924   1.398   1_455  A
C1923      N1930   1.429       .  S
C1924      C1925   1.407       .  A
C1924      H1929   1.084       .  S
C1925      C1926   1.412       .  A
C1926      N1927   1.430       .  S
N1927      O1931   1.262       .  A
N1927      O1932   1.262       .  A
N1930      O1934   1.262       .  A
N1930      O1933   1.262       .  A
C1935      C1936   1.404       .  A
C1935      C1940   1.403       .  A
C1935      H1942   1.083       .  S
C1936      C1937   1.413       .  A
C1937      C1938   1.398       .  A
C1937      N1944   1.430       .  S
C1938      C1939   1.405       .  A
C1938      H1943   1.083       .  S
C1939      C1940   1.417       .  A
C1940      N1941   1.432       .  S
N1941      O1945   1.262       .  A
N1941      O1946   1.262       .  A
N1944      O1948   1.262       .  A
N1944      O1947   1.262       .  A
C1949      C1950   1.403       .  A
C1949      C1954   1.400       .  A
C1949      H1956   1.081       .  S
C1950      C1951   1.409       .  A
C1951      C1952   1.398       .  A
C1951      N1958   1.429       .  S
C1952      C1953   1.402       .  A
C1952      H1957   1.081       .  S
C1953      C1954   1.408       .  A
C1954      N1955   1.429       .  S
N1955      O1959   1.262       .  A
N1955      O1960   1.262       .  A
N1958      O1962   1.262       .  A
N1958      O1961   1.262       .  A
C1963      C1964   1.406       .  A
C1963      C1968   1.405       .  A
C1963      H1970   1.083       .  S
C1964      C1965   1.413       .  A
C1965      C1966   1.404       .  A
C1965      N1972   1.430       .  S
C1966      C1967   1.406       .  A
C1966      H1971   1.083       .  S
C1967      C1968   1.415       .  A
C1968      N1969   1.434       .  S
N1969      O1973   1.262       .  A
N1969      O1974   1.262       .  A
N1972      O1976   1.262       .  A
N1972      O1975   1.262       .  A
C1977      C1978   1.405       .  A
C1977      C1982   1.408       .  A
C1977      H1984   1.083       .  S
C1978      C1979   1.414       .  A
C1979      C1980   1.393       .  A
C1979      N1986   1.430       .  S
C1980      C1981   1.402       .  A
C1980      H1985   1.083       .  S
C1981      C1982   1.417       .  A
C1982      N1983   1.429       .  S
N1983      O1987   1.262       .  A
N1983      O1988   1.262       .  A
N1986      O1990   1.262       .  A
N1986      O1989   1.262       .  A
C1991      C1992   1.406       .  A
C1991      C1996   1.397       .  A
C1991      H1998   1.083       .  S
C1992      C1993   1.411       .  A
C1993      C1994   1.401       .  A
C1993      N2000   1.432       .  S
C1994      C1995   1.405       .  A
C1994      H1999   1.083       .  S
C1995      C1996   1.408       .  A
C1996      N1997   1.430       .  S
N1997      O2001   1.262       .  A
N1997      O2002   1.262       .  A
N2000      O2004   1.262       .  A
N2000      O2003   1.262       .  A
C2005      C2006   1.399       .  A
C2005      C2010   1.400       .  A
C2005      H2012   1.083       .  S
C2006      C2007   1.405   1_556  A
C2007      C2008   1.402       .  A
C2007      N2014   1.429       .  S
C2008      C2009   1.408   1_554  A
C2008      H2013   1.083       .  S
C2009      C2010   1.418       .  A
C2010      N2011   1.433       .  S
N2011      O2015   1.262       .  A
N2011      O2016   1.262       .  A
N2014      O2018   1.262       .  A
N2014      O2017   1.262       .  A
C2019      C2020   1.401       .  A
C2019      C2024   1.404       .  A
C2019      H2026   1.083       .  S
C2020      C2021   1.409   1_554  A
C2021      C2022   1.402       .  A
C2021      N2028   1.432       .  S
C2022      C2023   1.404   1_556  A
C2022      H2027   1.083       .  S
C2023      C2024   1.413       .  A
C2024      N2025   1.429       .  S
N2025      O2029   1.262       .  A
N2025      O2030   1.262   1_655  A
N2028      O2032   1.262       .  A
N2028      O2031   1.262       .  A
C2033      C2034   1.395       .  A
C2033      C2038   1.402       .  A
C2033      H2040   1.084       .  S
C2034      C2035   1.409       .  A
C2035      C2036   1.403       .  A
C2035      N2042   1.429       .  S
C2036      C2037   1.407       .  A
C2036      H2041   1.083       .  S
C2037      C2038   1.427       .  A
C2038      N2039   1.435       .  S
N2039      O2043   1.262       .  A
N2039      O2044   1.263       .  A
N2042      O2046   1.262   1_554  A
N2042      O2045   1.262   1_554  A
C2047      C2048   1.403       .  A
C2047      C2052   1.401       .  A
C2047      H2054   1.083       .  S
C2048      C2049   1.419       .  A
C2049      C2050   1.401       .  A
C2049      N2056   1.432       .  S
C2050      C2051   1.403       .  A
C2050      H2055   1.083       .  S
C2051      C2052   1.419       .  A
C2052      N2053   1.433       .  S
N2053      O2057   1.262       .  A
N2053      O2058   1.262       .  A
N2056      O2060   1.262       .  A
N2056      O2059   1.262       .  A
C2061      C2062   1.404       .  A
C2061      C2066   1.403       .  A
C2061      H2068   1.083       .  S
C2062      C2063   1.415       .  A
C2063      C2064   1.403       .  A
C2063      N2070   1.428       .  S
C2064      C2065   1.404       .  A
C2064      H2069   1.083       .  S
C2065      C2066   1.414       .  A
C2066      N2067   1.429       .  S
N2067      O2071   1.262       .  A
N2067      O2072   1.262       .  A
N2070      O2074   1.261       .  A
N2070      O2073   1.262       .  A
C2075      C2076   1.409       .  A
C2075      C2080   1.400       .  A
C2075      H2082   1.083       .  S
C2076      C2077   1.416       .  A
C2077      C2078   1.403       .  A
C2077      N2084   1.429       .  S
C2078      C2079   1.402       .  A
C2078      H2083   1.083       .  S
C2079      C2080   1.410       .  A
C2080      N2081   1.434       .  S
N2081      O2085   1.263       .  A
N2081      O2086   1.262       .  A
N2084      O2088   1.262       .  A
N2084      O2087   1.262       .  A
C2089      C2090   1.403       .  A
C2089      C2094   1.408       .  A
C2089      H2096   1.083       .  S
C2090      C2091   1.407       .  A
C2091      C2092   1.395       .  A
C2091      N2098   1.434       .  S
C2092      C2093   1.406       .  A
C2092      H2097   1.084       .  S
C2093      C2094   1.417       .  A
C2094      N2095   1.432       .  S
N2095      O2099   1.262       .  A
N2095      O2100   1.262       .  A
N2098      O2102   1.262       .  A
N2098      O2101   1.262       .  A
C2103      C2104   1.404       .  A
C2103      C2108   1.401       .  A
C2103      H2110   1.084       .  S
C2104      C2105   1.408       .  A
C2105      C2106   1.397   1_455  A
C2105      N2112   1.435       .  S
C2106      C2107   1.407       .  A
C2106      H2111   1.083       .  S
C2107      C2108   1.412   1_655  A
C2108      N2109   1.429       .  S
N2109      O2113   1.262       .  A
N2109      O2114   1.262       .  A
N2112      O2116   1.263       .  A
N2112      O2115   1.262   1_455  A
C2117      C2118   1.404       .  A
C2117      C2122   1.410       .  A
C2117      H2124   1.083       .  S
C2118      C2119   1.407       .  A
C2119      C2120   1.396       .  A
C2119      N2126   1.431       .  S
C2120      C2121   1.406       .  A
C2120      H2125   1.084       .  S
C2121      C2122   1.416       .  A
C2122      N2123   1.429       .  S
N2123      O2127   1.262       .  A
N2123      O2128   1.262       .  A
N2126      O2130   1.262       .  A
N2126      O2129   1.262       .  A
C2131      C2132   1.405       .  A
C2131      C2136   1.400       .  A
C2131      H2138   1.083       .  S
C2132      C2133   1.414       .  A
C2133      C2134   1.401       .  A
C2133      N2140   1.428       .  S
C2134      C2135   1.404       .  A
C2134      H2139   1.084       .  S
C2135      C2136   1.411       .  A
C2136      N2137   1.428       .  S
N2137      O2141   1.262       .  A
N2137      O2142   1.262       .  A
N2140      O2144   1.261       .  A
N2140      O2143   1.262       .  A
C2145      C2146   1.402       .  A
C2145      C2150   1.400       .  A
C2145      H2152   1.083       .  S
C2146      C2147   1.413       .  A
C2147      C2148   1.399       .  A
C2147      N2154   1.430       .  S
C2148      C2149   1.404   1_655  A
C2148      H2153   1.083   1_655  S
C2149      C2150   1.416   1_455  A
C2150      N2151   1.431   1_556  S
N2151      O2155   1.262   1_655  A
N2151      O2156   1.262       .  A
N2154      O2158   1.262       .  A
N2154      O2157   1.262       .  A
C2159      C2160   1.403       .  A
C2159      C2164   1.402   1_655  A
C2159      H2166   1.083       .  S
C2160      C2161   1.417   1_655  A
C2161      C2162   1.402       .  A
C2161      N2168   1.429       .  S
C2162      C2163   1.402       .  A
C2162      H2167   1.083       .  S
C2163      C2164   1.416       .  A
C2164      N2165   1.433   1_455  S
N2165      O2169   1.262   1_655  A
N2165      O2170   1.262       .  A
N2168      O2172   1.262       .  A
N2168      O2171   1.262       .  A
C2173      C2174   1.401   1_455  A
C2173      C2178   1.395       .  A
C2173      H2180   1.084       .  S
C2174      C2175   1.407   1_556  A
C2175      C2176   1.399   1_655  A
C2175      N2182   1.430       .  S
C2176      C2177   1.403       .  A
C2176      H2181   1.083       .  S
C2177      C2178   1.407   1_554  A
C2178      N2179   1.429       .  S
N2179      O2183   1.262       .  A
N2179      O2184   1.262       .  A
N2182      O2186   1.262       .  A
N2182      O2185   1.262       .  A
C2187      C2188   1.410   1_655  A
C2187      C2192   1.409       .  A
C2187      H2194   1.083       .  S
C2188      C2189   1.420       .  A
C2189      C2190   1.401       .  A
C2189      N2196   1.434       .  S
C2190      C2191   1.399       .  A
C2190      H2195   1.084       .  S
C2191      C2192   1.408   1_455  A
C2192      N2193   1.429       .  S
N2193      O2197   1.262       .  A
N2193      O2198   1.261       .  A
N2196      O2200   1.262       .  A
N2196      O2199   1.262       .  A
C2201      C2202   1.404       .  A
C2201      C2206   1.402       .  A
C2201      H2208   1.083       .  S
C2202      C2203   1.413       .  A
C2203      C2204   1.401       .  A
C2203      N2210   1.430       .  S
C2204      C2205   1.405       .  A
C2204      H2209   1.083       .  S
C2205      C2206   1.415       .  A
C2206      N2207   1.432       .  S
N2207      O2211   1.262       .  A
N2207      O2212   1.262       .  A
N2210      O2214   1.262       .  A
N2210      O2213   1.262       .  A
C2215      C2216   1.404       .  A
C2215      C2220   1.410       .  A
C2215      H2222   1.083       .  S
C2216      C2217   1.409       .  A
C2217      C2218   1.400       .  A
C2217      N2224   1.433       .  S
C2218      C2219   1.404       .  A
C2218      H2223   1.084       .  S
C2219      C2220   1.416       .  A
C2220      N2221   1.432       .  S
N2221      O2225   1.263       .  A
N2221      O2226   1.262       .  A
N2224      O2228   1.262       .  A
N2224      O2227   1.262       .  A
C2229      C2230   1.406       .  A
C2229      C2234   1.403       .  A
C2229      H2236   1.083       .  S
C2230      C2231   1.415       .  A
C2231      C2232   1.403       .  A
C2231      N2238   1.430       .  S
C2232      C2233   1.408       .  A
C2232      H2237   1.083       .  S
C2233      C2234   1.420       .  A
C2234      N2235   1.434       .  S
N2235      O2239   1.262       .  A
N2235      O2240   1.262       .  A
N2238      O2242   1.262       .  A
N2238      O2241   1.262       .  A
C2243      C2244   1.408       .  A
C2243      C2248   1.403       .  A
C2243      H2250   1.083       .  S
C2244      C2245   1.416       .  A
C2245      C2246   1.399       .  A
C2245      N2252   1.432   1_455  S
C2246      C2247   1.405       .  A
C2246      H2251   1.083       .  S
C2247      C2248   1.414       .  A
C2248      N2249   1.432       .  S
N2249      O2253   1.262       .  A
N2249      O2254   1.262       .  A
N2252      O2256   1.262       .  A
N2252      O2255   1.262       .  A
C2257      C2258   1.404       .  A
C2257      C2262   1.409       .  A
C2257      H2264   1.083       .  S
C2258      C2259   1.410       .  A
C2259      C2260   1.400       .  A
C2259      N2266   1.435       .  S
C2260      C2261   1.404       .  A
C2260      H2265   1.084       .  S
C2261      C2262   1.412       .  A
C2262      N2263   1.428       .  S
N2263      O2267   1.262       .  A
N2263      O2268   1.262       .  A
N2266      O2270   1.262       .  A
N2266      O2269   1.262       .  A
C2271      C2272   1.402       .  A
C2271      C2276   1.399       .  A
C2271      H2278   1.084       .  S
C2272      C2273   1.409       .  A
C2273      C2274   1.403       .  A
C2273      N2280   1.432       .  S
C2274      C2275   1.403       .  A
C2274      H2279   1.083       .  S
C2275      C2276   1.413       .  A
C2276      N2277   1.436       .  S
N2277      O2281   1.263       .  A
N2277      O2282   1.262       .  A
N2280      O2284   1.262       .  A
N2280      O2283   1.262       .  A
C2285      C2286   1.400       .  A
C2285      C2290   1.401       .  A
C2285      H2292   1.084       .  S
C2286      C2287   1.406       .  A
C2287      C2288   1.402       .  A
C2287      N2294   1.430       .  S
C2288      C2289   1.407       .  A
C2288      H2293   1.083       .  S
C2289      C2290   1.415       .  A
C2290      N2291   1.433       .  S
N2291      O2295   1.262       .  A
N2291      O2296   1.262       .  A
N2294      O2298   1.262       .  A
N2294      O2297   1.262       .  A
C2299      C2300   1.401       .  A
C2299      C2304   1.400       .  A
C2299      H2306   1.083       .  S
C2300      C2301   1.417       .  A
C2301      C2302   1.402       .  A
C2301      N2308   1.429       .  S
C2302      C2303   1.401       .  A
C2302      H2307   1.083       .  S
C2303      C2304   1.418       .  A
C2304      N2305   1.435       .  S
N2305      O2309   1.263       .  A
N2305      O2310   1.262       .  A
N2308      O2312   1.262       .  A
N2308      O2311   1.262       .  A
C2313      C2314   1.404       .  A
C2313      C2318   1.403   1_455  A
C2313      H2320   1.083       .  S
C2314      C2315   1.414       .  A
C2315      C2316   1.400   1_455  A
C2315      N2322   1.430       .  S
C2316      C2317   1.403       .  A
C2316      H2321   1.083       .  S
C2317      C2318   1.414       .  A
C2318      N2319   1.431       .  S
N2319      O2323   1.262       .  A
N2319      O2324   1.262       .  A
N2322      O2326   1.262       .  A
N2322      O2325   1.262       .  A
C2327      C2328   1.402       .  A
C2327      C2332   1.397       .  A
C2327      H2334   1.083       .  S
C2328      C2329   1.417       .  A
C2329      C2330   1.397       .  A
C2329      N2336   1.429       .  S
C2330      C2331   1.402       .  A
C2330      H2335   1.083       .  S
C2331      C2332   1.417       .  A
C2332      N2333   1.429       .  S
N2333      O2337   1.261       .  A
N2333      O2338   1.262       .  A
N2336      O2340   1.261       .  A
N2336      O2339   1.262       .  A
