geometry optimzed in LAMMPS
_audit_creation_date              2020-12-01 
_audit_creation_method            'lammps2cif' 
_symmetry_space_group_name_H-M    'P1' 
_symmetry_Int_Tables_number       1 
_symmetry_cell_setting            triclinic 
loop_ 
_symmetry_equiv_pos_as_xyz 
  x,y,z 
_cell_length_a                    29.09121464 
_cell_length_b                    29.12364953273872 
_cell_length_c                    60.653419854269025 
_cell_angle_alpha                 89.45852622018717 
_cell_angle_beta                  89.8986844365041 
_cell_angle_gamma                 119.97725094913012 
loop_ 
_atom_site_label 
_atom_site_type_symbol 
_atom_site_fract_x 
_atom_site_fract_y 
_atom_site_fract_z 
_atom_site_charge 
Zn1        Zn  0.77609512  0.20570259  0.48461546     1.49700
Zn2        Zn  0.78528964  0.28624536  0.51774171     1.49400
Zn3        Zn  0.85854575  0.23930178  0.52491692     1.49100
Zn4        Zn  0.87946394  0.31649665  0.48243443     1.49500
O5          O  0.82689392  0.26278109  0.50236147    -1.81400
O6          O  0.70437003  0.20207262  0.48221793    -0.72000
O7          O  0.80552966  0.30281339  0.54929264    -0.71800
O8          O  0.81448986  0.15728904  0.52823809    -0.71300
O9          O  0.70718030  0.23540661  0.51526289    -0.72000
O10         O  0.76028095  0.14015020  0.49978673    -0.71600
O11         O  0.86608926  0.27866145  0.55415496    -0.72200
O12         O  0.95257875  0.32745902  0.49045540    -0.71600
O13         O  0.80121775  0.35482923  0.50475508    -0.72300
O14         O  0.93309249  0.26279270  0.51525638    -0.71700
O15         O  0.87197569  0.38367044  0.48271872    -0.72200
O16         O  0.87052879  0.28823086  0.45142909    -0.72100
O17         O  0.80703524  0.20402933  0.45539175    -0.71900
C18         C  0.68121127  0.20929923  0.49857848     0.79900
C19         C  0.84073911  0.30114084  0.56101790     0.80400
C20         C  0.77593382  0.12462223  0.51626424     0.79300
C21         C  0.96597743  0.29986571  0.50254503     0.79700
C22         C  0.83658985  0.39043453  0.49234132     0.80900
C23         C  0.84396560  0.24123388  0.44414629     0.79900
Zn24       Zn  0.87979449  0.12072433  0.31561498     1.49700
Zn25       Zn  0.87394985  0.20246841  0.34764090     1.49400
Zn26       Zn  0.91858596  0.12805667  0.36491538     1.49100
Zn27       Zn  0.98287204  0.22144905  0.32970452     1.49500
O28         O  0.91376268  0.16802607  0.33969439    -1.81400
O29         O  0.80463726  0.10286177  0.31436265    -0.72000
O30         O  0.86507520  0.19869736  0.37990980    -0.71800
O31         O  0.87779205  0.04904128  0.35873807    -0.71300
O32         O  0.79820359  0.16027010  0.33634841    -0.72000
O33         O  0.87395641  0.05024739  0.32203158    -0.71600
O34         O  0.89281272  0.14560564  0.39340050    -0.72200
O35         O  0.03603087  0.20251700  0.34063434    -0.71600
O36         O  0.91617988  0.28251252  0.34250783    -0.72300
O37         O  0.99437990  0.14370479  0.36771367    -0.71700
O38         O  0.99714400  0.29202402  0.34098288    -0.72200
O39         O  0.98940301  0.22509809  0.29632529    -0.72100
O40         O  0.91605233  0.15205863  0.28632630    -0.71900
C41         C  0.77716766  0.11945540  0.32408334     0.79900
C42         C  0.87330600  0.17591247  0.39608392     0.80400
C43         C  0.86840920  0.02564424  0.34021542     0.79300
C44         C  0.03511098  0.17103996  0.35557353     0.79700
C45         C  0.96668094  0.31130149  0.34372052     0.80900
C46         C  0.95956496  0.19386341  0.28145110     0.79900
Zn47       Zn  0.88813252  0.81061985  0.35980663     1.49700
Zn48       Zn  0.81244475  0.69464456  0.34203060     1.49400
Zn49       Zn  0.80251571  0.79125871  0.32262964     1.49100
Zn50       Zn  0.90062375  0.78056292  0.31046276     1.49500
O51         O  0.85076450  0.76950558  0.33380449    -1.81400
O52         O  0.86958819  0.76515161  0.38784923    -0.72000
O53         O  0.73457484  0.66134703  0.33651646    -0.71800
O54         O  0.81940325  0.86055157  0.33610024    -0.71300
O55         O  0.81497870  0.68572849  0.37432923    -0.72000
O56         O  0.87400010  0.87157281  0.36379320    -0.71600
O57         O  0.72799187  0.73334898  0.32969784    -0.72200
O58         O  0.87499472  0.79046818  0.27996528    -0.71600
O59         O  0.84798394  0.65557793  0.33031548    -0.72300
O60         O  0.80899380  0.80407254  0.28950868    -0.71700
O61         O  0.91632538  0.72105372  0.31221443    -0.72200
O62         O  0.97148058  0.84290301  0.31770426    -0.72100
O63         O  0.96671025  0.84644156  0.35430262    -0.71900
C64         C  0.83884050  0.71539837  0.39048603     0.79900
C65         C  0.70700085  0.68385526  0.33393331     0.80400
C66         C  0.84852205  0.88771339  0.35202475     0.79300
C67         C  0.83894766  0.80153311  0.27481355     0.79700
C68         C  0.89334313  0.67506484  0.32109646     0.80900
C69         C  0.99319002  0.86027090  0.33631876     0.79900
Zn70       Zn  0.72316169  0.53223103  0.51765548     1.49700
Zn71       Zn  0.77484741  0.65563082  0.51589151     1.49400
Zn72       Zn  0.80652980  0.59181842  0.48203039     1.49100
Zn73       Zn  0.69734754  0.58323595  0.47689852     1.49500
O74         O  0.75011621  0.59183321  0.49825854    -1.81400
O75         O  0.70207737  0.54771991  0.54713525    -0.72000
O76         O  0.85700242  0.69323410  0.51874153    -0.71800
O77         O  0.80572550  0.52201012  0.48465044    -0.71300
O78         O  0.73827497  0.63538706  0.54655124    -0.72000
O79         O  0.77226786  0.50214943  0.51873205    -0.71600
O80         O  0.87194699  0.64249555  0.49605585    -0.72200
O81         O  0.72889657  0.60268512  0.44641373    -0.71600
O82         O  0.74842273  0.70108707  0.50081384    -0.72300
O83         O  0.81138044  0.61884237  0.45096108    -0.71700
O84         O  0.67797154  0.63884645  0.48274890    -0.72200
O85         O  0.63414460  0.50773761  0.47688537    -0.72100
O86         O  0.65700816  0.47498610  0.50529566    -0.71900
C87         C  0.70952187  0.59037795  0.55600656     0.79900
C88         C  0.88849084  0.68004986  0.50970761     0.80400
C89         C  0.79603100  0.49512778  0.50251020     0.79300
C90         C  0.77573621  0.61971990  0.43916553     0.79700
C91         C  0.70561536  0.68595368  0.48992426     0.80900
C92         C  0.62554834  0.46927730  0.48971479     0.79900
Zn93       Zn  0.31610684  0.14177535  0.34425454     1.49700
Zn94       Zn  0.19797977  0.09151552  0.36080413     1.49400
Zn95       Zn  0.22606741  0.13419451  0.31091380     1.49100
Zn96       Zn  0.22716028  0.03216514  0.32419625     1.49500
O97         O  0.24228437  0.10021949  0.33504114    -1.81400
O98         O  0.32251069  0.15022782  0.37720493    -0.72000
O99         O  0.16158861  0.13425714  0.35663398    -0.71800
O100        O  0.28592244  0.20891124  0.30744382    -0.71300
O101        O  0.23945555  0.11218445  0.38940019    -0.72000
O102        O  0.34641142  0.21650435  0.33198213    -0.71600
O103        O  0.16597129  0.14535992  0.32011830    -0.72200
O104        O  0.21594615  0.02357874  0.29134557    -0.71600
O105        O  0.13837833  0.01615280  0.36301677    -0.72300
O106        O  0.20836445  0.09306398  0.28173178    -0.71700
O107        O  0.15885707  0.97553096  0.33713482    -0.72200
O108        O  0.28780910  0.02165780  0.33089418    -0.72100
O109        O  0.35596926  0.10252043  0.33764088    -0.71900
C110        C  0.28918292  0.13599450  0.39299153     0.79900
C111        C  0.14837488  0.14855794  0.33895662     0.80400
C112        C  0.32836849  0.23690921  0.31818026     0.79300
C113        C  0.20684761  0.04975230  0.27683902     0.79700
C114        C  0.12732607  0.97535575  0.35174823     0.80900
C115        C  0.33680531  0.05291100  0.33457605     0.79900
Zn116      Zn  0.35050802  0.15344266  0.49284259     1.49700
Zn117      Zn  0.43988281  0.12948007  0.51159004     1.49400
Zn118      Zn  0.46950071  0.22420178  0.47675111     1.49100
Zn119      Zn  0.43956754  0.22990145  0.52656410     1.49500
O120        O  0.42430522  0.18357972  0.50183120    -1.81400
O121        O  0.31061149  0.07306944  0.49850551    -0.72000
O122        O  0.51091513  0.14589560  0.49888688    -0.71800
O123        O  0.42858386  0.20722099  0.44799128    -0.71300
O124        O  0.38004808  0.06011382  0.50148632    -0.72000
O125        O  0.34550222  0.15836856  0.45986239    -0.71600
O126        O  0.52953874  0.20869851  0.47348561    -0.72200
O127        O  0.50500768  0.29867341  0.51972502    -0.71600
O128        O  0.44674952  0.12537228  0.54513617    -0.72300
O129        O  0.50583270  0.30298123  0.48300274    -0.71700
O130        O  0.45035312  0.19993320  0.55545373    -0.72200
O131        O  0.38335306  0.25026641  0.52902517    -0.72100
O132        O  0.32075227  0.19899973  0.50515364    -0.71900
C133        C  0.33064064  0.04259576  0.49852621     0.79900
C134        C  0.54178350  0.17867242  0.48426705     0.80400
C135        C  0.37897421  0.18015102  0.44422709     0.79300
C136        C  0.52220598  0.32461621  0.50171191     0.79700
C137        C  0.45241595  0.15817877  0.56011398     0.80900
C138        C  0.34068338  0.23756712  0.51868116     0.79900
Zn139      Zn  0.11938347  0.42823496  0.01991232     1.49700
Zn140      Zn  0.20998860  0.49359699  0.98466144     1.49400
Zn141      Zn  0.22471369  0.42324551  0.01918581     1.49100
Zn142      Zn  0.14241921  0.37293532  0.97792833     1.49500
O143        O  0.17288046  0.42823095  0.00048983    -1.81400
O144        O  0.12208170  0.50027733  0.01963615    -0.72000
O145        O  0.28763517  0.52452891  0.98739857    -0.71800
O146        O  0.19688827  0.39731464  0.05001422    -0.71300
O147        O  0.19133686  0.54436099  0.99717384    -0.72000
O148        O  0.12813573  0.41067014  0.05125495    -0.71600
O149        O  0.29843024  0.49016974  0.01850431    -0.72200
O150        O  0.18909753  0.33738181  0.97595446    -0.71600
O151        O  0.19095862  0.48903164  0.95283377    -0.72300
O152        O  0.23638320  0.36850232  0.00665692    -0.71700
O153        O  0.13504314  0.40354540  0.94762008    -0.72200
O154        O  0.06780030  0.31929821  0.98814058    -0.72100
O155        O  0.04875032  0.36522371  0.01221868    -0.71900
C156        C  0.15589684  0.54308535  0.00986671     0.79900
C157        C  0.31724945  0.52328564  0.00247498     0.80400
C158        C  0.15786451  0.39560654  0.06024861     0.79300
C159        C  0.22302816  0.33906750  0.98986487     0.79700
C160        C  0.15883860  0.45160789  0.94063657     0.80900
C161        C  0.03543862  0.32332231  0.00113894     0.79900
Zn162      Zn  0.11215148  0.33302562  0.15833696     1.49700
Zn163      Zn  0.06624796  0.21094112  0.14371198     1.49400
Zn164      Zn  0.11440315  0.24917234  0.19089196     1.49100
Zn165      Zn  0.00711801  0.24254587  0.18000788     1.49500
O166        O  0.07477355  0.25892938  0.16791827    -1.81400
O167        O  0.12162080  0.33525438  0.12589292    -0.72000
O168        O  0.11097268  0.17594297  0.14916333    -0.71800
O169        O  0.18947403  0.30683982  0.18772000    -0.71300
O170        O  0.08946664  0.25252896  0.11432044    -0.72000
O171        O  0.18832134  0.37249717  0.16917877    -0.71600
O172        O  0.11678857  0.18240284  0.18571002    -0.72200
O173        O  0.00681126  0.23964777  0.21331066    -0.71600
O174        O  0.98957604  0.14781594  0.14415703    -0.72300
O175        O  0.08464383  0.24706044  0.22151783    -0.71700
O176        O  0.95207510  0.16984807  0.17098096    -0.72200
O177        O  0.98906256  0.29764377  0.16999362    -0.72100
O178        O  0.06814568  0.36878631  0.16312945    -0.71900
C179        C  0.11192428  0.30242945  0.11049494     0.79900
C180        C  0.12093614  0.16226223  0.16778791     0.80400
C181        C  0.21354303  0.35260073  0.17864976     0.79300
C182        C  0.03998087  0.24133957  0.22742951     0.79700
C183        C  0.95049491  0.13662911  0.15712228     0.80900
C184        C  0.01778359  0.34677542  0.16523731     0.79900
Zn185      Zn  0.56842325  0.81620197  0.02064280     1.49700
Zn186      Zn  0.50898847  0.73090923  0.98538752     1.49400
Zn187      Zn  0.63214766  0.79522590  0.98191165     1.49100
Zn188      Zn  0.57412617  0.71165819  0.02275521     1.49500
O189        O  0.57195832  0.76341246  0.00264218    -1.81400
O190        O  0.50017001  0.81710581  0.01818199    -0.72000
O191        O  0.52178377  0.71652559  0.95410173    -0.71800
O192        O  0.67093388  0.87656360  0.98312083    -0.71300
O193        O  0.47040594  0.77213158  0.98706131    -0.72000
O194        O  0.62405977  0.88554674  0.00996693    -0.71600
O195        O  0.60906226  0.76750188  0.95042728    -0.72200
O196        O  0.63618372  0.70328512  0.01457150    -0.71600
O197        O  0.46098403  0.66108817  0.99849260    -0.72300
O198        O  0.68237497  0.77010003  0.99076717    -0.71700
O199        O  0.50253130  0.64133978  0.02429222    -0.72200
O200        O  0.59521057  0.74229484  0.05282931    -0.72100
O201        O  0.58625168  0.81367887  0.05220585    -0.71900
C202        C  0.46786136  0.80088919  0.00220920     0.79900
C203        C  0.56395230  0.73411106  0.94255406     0.80400
C204        C  0.66151007  0.90559411  0.99585774     0.79300
C205        C  0.67767331  0.73223332  0.00303050     0.79700
C206        C  0.46115944  0.62930368  0.01293820     0.80900
C207        C  0.59903200  0.78306559  0.06198361     0.79900
Zn208      Zn  0.77846200  0.90449873  0.18343442     1.49700
Zn209      Zn  0.79848346  0.87371393  0.13534709     1.49400
Zn210      Zn  0.77447172  0.79534549  0.17567699     1.49100
Zn211      Zn  0.68216824  0.81140125  0.15719137     1.49500
O212        O  0.75841264  0.84672160  0.16302122    -1.81400
O213        O  0.83967474  0.97289482  0.17031413    -0.72000
O214        O  0.85734960  0.85644527  0.13328436    -0.71800
O215        O  0.78755598  0.80590835  0.20830117    -0.71300
O216        O  0.83929945  0.95383990  0.13478177    -0.72000
O217        O  0.79537022  0.88481223  0.21423830    -0.71600
O218        O  0.84442305  0.80814366  0.16369532    -0.72200
O219        O  0.64424372  0.73289563  0.16402738    -0.71600
O220        O  0.74983064  0.84573995  0.10902737    -0.72300
O221        O  0.71311654  0.72106201  0.17035121    -0.71700
O222        O  0.67052706  0.81221301  0.12508712    -0.72200
O223        O  0.64761354  0.84990277  0.17050716    -0.72100
O224        O  0.71779529  0.91943254  0.18511210    -0.71900
C225        C  0.85601932  0.98699493  0.15045554     0.79900
C226        C  0.87277675  0.83401364  0.14711357     0.80400
C227        C  0.79685851  0.84384931  0.22116486     0.79300
C228        C  0.66361089  0.70260644  0.16698749     0.79700
C229        C  0.69948746  0.82388759  0.10794502     0.80900
C230        C  0.66921469  0.89542551  0.17930296     0.79900
Zn231      Zn  0.18263278  0.77440517  0.02057313     1.49700
Zn232      Zn  0.26693420  0.79883334  0.98571692     1.49400
Zn233      Zn  0.21119939  0.86337201  0.98170014     1.49100
Zn234      Zn  0.28843832  0.88294654  0.02345835     1.49500
O235        O  0.23740632  0.83166561  0.00302684    -1.81400
O236        O  0.18193303  0.70418706  0.01817107    -0.72000
O237        O  0.29034646  0.82987231  0.95546339    -0.71800
O238        O  0.12997368  0.81714153  0.98004613    -0.71300
O239        O  0.22083576  0.72026836  0.98521437    -0.72000
O240        O  0.11544506  0.76080322  0.00792040    -0.71600
O241        O  0.24694361  0.87369135  0.95113709    -0.72200
O242        O  0.30186828  0.95579400  0.01483849    -0.71600
O243        O  0.33207020  0.81265330  0.99960969    -0.72300
O244        O  0.23430617  0.93756827  0.99217570    -0.71700
O245        O  0.35588336  0.87511850  0.02489910    -0.72200
O246        O  0.25296016  0.87475274  0.05309851    -0.72100
O247        O  0.17921319  0.79635932  0.05166077    -0.71900
C248        C  0.19446399  0.68834297  0.00083081     0.79900
C249        C  0.27917562  0.85948471  0.94391908     0.80400
C250        C  0.09864984  0.77831947  0.99254904     0.79300
C251        C  0.27306383  0.96980633  0.00407934     0.79700
C252        C  0.36483902  0.84321114  0.01372762     0.80900
C253        C  0.20885907  0.83970486  0.06143720     0.79900
Zn254      Zn  0.10934480  0.87750808  0.14709689     1.49700
Zn255      Zn  0.20813648  0.98844025  0.14604074     1.49400
Zn256      Zn  0.11923382  0.95493611  0.18279703     1.49100
Zn257      Zn  0.19489475  0.90706020  0.18509063     1.49500
O258        O  0.15924755  0.93264150  0.16556356    -1.81400
O259        O  0.14243463  0.87623191  0.11806535    -0.72000
O260        O  0.19174793  0.04956755  0.14426206    -0.71800
O261        O  0.04096174  0.90139106  0.18039489    -0.71300
O262        O  0.20937938  0.95908323  0.11601816    -0.72000
O263        O  0.03886150  0.87545307  0.14577577    -0.71600
O264        O  0.12961260  0.02264731  0.17043308    -0.72200
O265        O  0.20151012  0.93983324  0.21577348    -0.71600
O266        O  0.28149938  0.01091629  0.15661600    -0.72300
O267        O  0.14649234  0.97201911  0.21399527    -0.71700
O268        O  0.27059747  0.93671254  0.17287084    -0.72200
O269        O  0.15075514  0.82449048  0.18727735    -0.72100
O270        O  0.09096360  0.81064226  0.16158719    -0.71900
C271        C  0.18343813  0.91252322  0.10824257     0.79900
C272        C  0.15875006  0.05624856  0.15579060     0.80400
C273        C  0.01529204  0.87842159  0.16303163     0.79300
C274        C  0.18052999  0.96499809  0.22441195     0.79700
C275        C  0.30011655  0.98208672  0.16369709     0.80900
C276        C  0.10853471  0.79337995  0.17671381     0.79900
Zn277      Zn  0.44398827  0.92484711  0.32120257     1.49700
Zn278      Zn  0.55219863  0.92675149  0.32247839     1.49400
Zn279      Zn  0.52335367  0.98528644  0.36124872     1.49100
Zn280      Zn  0.46041421  0.86255417  0.35783511     1.49500
O281        O  0.49661632  0.92620901  0.34067507    -1.81400
O282        O  0.47382749  0.95273111  0.29098771    -0.72000
O283        O  0.62222944  0.99049691  0.33117322    -0.71800
O284        O  0.47791696  0.02121671  0.36000289    -0.71300
O285        O  0.54656361  0.94598806  0.29093366    -0.72000
O286        O  0.42540602  0.97639276  0.33220627    -0.71600
O287        O  0.59823283  0.03812904  0.35202623    -0.72200
O288        O  0.48687326  0.87281975  0.38898330    -0.71600
O289        O  0.54720455  0.85310916  0.32302178    -0.72300
O290        O  0.52838882  0.96032275  0.39252613    -0.71700
O291        O  0.47751901  0.81088660  0.34545876    -0.72200
O292        O  0.38084702  0.82949100  0.35567703    -0.72100
O293        O  0.37546799  0.85337332  0.32125642    -0.71900
C294        C  0.51549537  0.95875587  0.28150578     0.79900
C295        C  0.63291532  0.03352096  0.34091942     0.80400
C296        C  0.44033333  0.01208907  0.34672379     0.79300
C297        C  0.51402774  0.91419499  0.40036286     0.79700
C298        C  0.51215028  0.81069137  0.33274703     0.80900
C299        C  0.35408962  0.82430742  0.33831727     0.79900
Zn300      Zn  0.54254613  0.10720038  0.15155510     1.49700
Zn301      Zn  0.58997753  0.14426673  0.19894361     1.49400
Zn302      Zn  0.54411967  0.02277875  0.18382506     1.49100
Zn303      Zn  0.64938632  0.11294966  0.16277471     1.49500
O304        O  0.58160900  0.09680319  0.17457043    -1.81400
O305        O  0.54100498  0.17385558  0.15724936    -0.72000
O306        O  0.56984926  0.10257383  0.22840590    -0.71800
O307        O  0.46691739  0.98539760  0.17407203    -0.71300
O308        O  0.54454516  0.17886499  0.19387566    -0.72000
O309        O  0.46662359  0.04979684  0.15415305    -0.71600
O310        O  0.53904165  0.02041609  0.21633554    -0.72200
O311        O  0.66620779  0.05681329  0.17197121    -0.71600
O312        O  0.66606368  0.20758510  0.19792037    -0.72300
O313        O  0.58645375  0.98571852  0.17768880    -0.71700
O314        O  0.70504698  0.18441071  0.17218448    -0.72200
O315        O  0.65161265  0.11910715  0.12973959    -0.72100
O316        O  0.57433822  0.11235677  0.12100880    -0.71900
C317        C  0.53602972  0.19346177  0.17514904     0.79900
C318        C  0.54968874  0.05277335  0.23198928     0.80400
C319        C  0.44207679  0.00475481  0.16384580     0.79300
C320        C  0.63687604  0.00740500  0.17594197     0.79700
C321        C  0.70577616  0.21816666  0.18546744     0.80900
C322        C  0.61965880  0.11915229  0.11545635     0.79900
Zn323      Zn  0.11196963  0.66161652  0.34827315     1.49700
Zn324      Zn  0.10186371  0.55274856  0.36238338     1.49400
Zn325      Zn  0.01949756  0.55505620  0.33033903     1.49100
Zn326      Zn  0.13891466  0.59612513  0.31374508     1.49500
O327        O  0.09357540  0.59172434  0.33863156    -1.81400
O328        O  0.11700389  0.66676671  0.38154021    -0.72000
O329        O  0.04201983  0.47663156  0.36110887    -0.71800
O330        O  0.98426900  0.59831024  0.33484212    -0.71300
O331        O  0.10814691  0.58921423  0.39203387    -0.72000
O332        O  0.05620239  0.67844555  0.33710180    -0.71600
O333        O  0.97879179  0.47986689  0.34177385    -0.72200
O334        O  0.09742925  0.57680511  0.28506175    -0.71600
O335        O  0.16677948  0.54717308  0.35632482    -0.72300
O336        O  0.01600445  0.54774136  0.29813901    -0.71700
O337        O  0.17121257  0.54911298  0.31958575    -0.72200
O338        O  0.20247996  0.67088258  0.31143929    -0.72100
O339        O  0.18506289  0.71414616  0.33719601    -0.71900
C340        C  0.11552020  0.63522506  0.39660872     0.79900
C341        C  0.99653994  0.45371947  0.35200569     0.80400
C342        C  0.00655288  0.64867198  0.33375899     0.79300
C343        C  0.04782609  0.55788576  0.28210898     0.79700
C344        C  0.18518324  0.54020510  0.33835105     0.80900
C345        C  0.21607427  0.71221013  0.32285447     0.79900
Zn346      Zn  0.87616849  0.45008243  0.15788895     1.49700
Zn347      Zn  0.88179699  0.55927108  0.16611057     1.49400
Zn348      Zn  0.85430197  0.48086277  0.20576343     1.49100
Zn349      Zn  0.97202699  0.54158892  0.18523904     1.49500
O350        O  0.89634725  0.50722568  0.17867476    -1.81400
O351        O  0.85926518  0.47081632  0.12738975    -0.72000
O352        O  0.80937894  0.54441559  0.17600250    -0.71800
O353        O  0.81213532  0.40156840  0.20584594    -0.71300
O354        O  0.87518023  0.55268778  0.13344456    -0.72000
O355        O  0.81482875  0.38154022  0.17067872    -0.71600
O356        O  0.79638092  0.49975354  0.20745538    -0.72200
O357        O  0.98160434  0.53714698  0.21750079    -0.71600
O358        O  0.94159391  0.63275195  0.17284475    -0.72300
O359        O  0.90115241  0.50370067  0.23250238    -0.71700
O360        O  0.01036664  0.62052640  0.17885628    -0.72200
O361        O  0.00629418  0.50324557  0.17139321    -0.72100
O362        O  0.93663293  0.43490070  0.15585537    -0.71900
C363        C  0.86271502  0.51416996  0.12050659     0.79900
C364        C  0.78059363  0.51985121  0.19267901     0.80400
C365        C  0.79695483  0.36808349  0.19038032     0.79300
C366        C  0.95113262  0.52335383  0.23425689     0.79700
C367        C  0.99105988  0.65096355  0.17607831     0.80900
C368        C  0.98496294  0.45839044  0.16200074     0.79900
Zn369      Zn  0.37063562  0.46658781  0.31715024     1.49700
Zn370      Zn  0.47448391  0.57710848  0.31868651     1.49400
Zn371      Zn  0.39217505  0.55032290  0.35449893     1.49100
Zn372      Zn  0.45256538  0.48779858  0.35658264     1.49500
O373        O  0.42253498  0.51909740  0.33669505    -1.81400
O374        O  0.40407619  0.47572296  0.28729401    -0.72000
O375        O  0.47567925  0.64698031  0.32216181    -0.71800
O376        O  0.32488414  0.53536771  0.34123453    -0.71300
O377        O  0.47543079  0.55610002  0.28732011    -0.72000
O378        O  0.30311408  0.47362879  0.31569519    -0.71600
O379        O  0.43763931  0.62958614  0.35532197    -0.72200
O380        O  0.41636505  0.47316383  0.38742379    -0.71600
O381        O  0.54286002  0.59211653  0.32995030    -0.72300
O382        O  0.37231097  0.51684299  0.38443354    -0.71700
O383        O  0.53439084  0.53561855  0.35675137    -0.72200
O384        O  0.43238398  0.41525971  0.34501652    -0.72100
O385        O  0.35948409  0.39417603  0.32548333    -0.71900
C386        C  0.44618645  0.51189678  0.27809141     0.79900
C387        C  0.46413432  0.66226683  0.33988931     0.80400
C388        C  0.29298947  0.50473959  0.32681556     0.79300
C389        C  0.38356077  0.48611869  0.39520054     0.79700
C390        C  0.56312248  0.57572497  0.34428284     0.80900
C391        C  0.39199490  0.38189821  0.33421489     0.79900
Zn392      Zn  0.45856701  0.44624770  0.15480961     1.49700
Zn393      Zn  0.44366472  0.36406923  0.19298154     1.49400
Zn394      Zn  0.53272261  0.39685227  0.15701668     1.49100
Zn395      Zn  0.54402661  0.47385374  0.19263684     1.49500
O396        O  0.49380391  0.42003300  0.17409116    -1.81400
O397        O  0.38447596  0.41957917  0.16811004    -0.72000
O398        O  0.46008707  0.30340174  0.19594195    -0.71800
O399        O  0.50028896  0.37512508  0.12673809    -0.71300
O400        O  0.37157953  0.34196695  0.18132567    -0.72000
O401        O  0.44590581  0.40810327  0.12492705    -0.71600
O402        O  0.52402936  0.33093781  0.17060085    -0.72200
O403        O  0.61403604  0.47499518  0.19339391    -0.71600
O404        O  0.44088347  0.39326533  0.22255999    -0.72300
O405        O  0.61149112  0.45069259  0.15847321    -0.71700
O406        O  0.51113794  0.47438244  0.22168890    -0.72200
O407        O  0.56282205  0.54129418  0.17879315    -0.72100
O408        O  0.50532083  0.52917045  0.15227890    -0.71900
C409        C  0.35406776  0.37287510  0.17594597     0.79900
C410        C  0.49457952  0.29749186  0.18522933     0.80400
C411        C  0.46434092  0.38010284  0.11680809     0.79300
C412        C  0.63744579  0.47267880  0.17594887     0.79700
C413        C  0.46851699  0.43896654  0.23086945     0.80900
C414        C  0.54673326  0.55960008  0.16351498     0.79900
Zn415      Zn  0.28012974  0.50010000  0.49007226     1.49700
Zn416      Zn  0.22717108  0.37975024  0.48241442     1.49400
Zn417      Zn  0.30293560  0.43041330  0.52505336     1.49100
Zn418      Zn  0.19475506  0.42888804  0.52347589     1.49500
O419        O  0.25174201  0.43357808  0.50534692    -1.81400
O420        O  0.29777848  0.49677860  0.45847935    -0.72000
O421        O  0.24439169  0.32318163  0.49236382    -0.71800
O422        O  0.37200340  0.50329767  0.52577573    -0.71300
O423        O  0.26952593  0.41147581  0.45330509    -0.72000
O424        O  0.34876394  0.54952484  0.50352153    -0.71600
O425        O  0.30996645  0.36635488  0.51648217    -0.72200
O426        O  0.19148140  0.39716394  0.55351811    -0.71600
O427        O  0.14590369  0.34936913  0.47836094    -0.72300
O428        O  0.27366553  0.41116961  0.55616647    -0.71700
O429        O  0.12850514  0.38047671  0.50878421    -0.72200
O430        O  0.19356508  0.49834349  0.52492070    -0.72100
O431        O  0.23255221  0.53137847  0.49254141    -0.71900
C432        C  0.29436826  0.45964019  0.44655778     0.79900
C433        C  0.28058904  0.32532801  0.50495229     0.80400
C434        C  0.38175533  0.54690895  0.51645468     0.79300
C435        C  0.22770042  0.39490651  0.56434586     0.79700
C436        C  0.11319477  0.35316914  0.49136669     0.80900
C437        C  0.20469028  0.53084362  0.50883634     0.79900
Zn438      Zn  0.11024378  0.23890120  0.69590459     1.49700
Zn439      Zn  0.12063498  0.20914166  0.64643782     1.49400
Zn440      Zn  0.19249332  0.32772050  0.66257760     1.49100
Zn441      Zn  0.21194749  0.23754452  0.68186599     1.49500
O442        O  0.15893556  0.25353410  0.67153509    -1.81400
O443        O  0.03876594  0.17647388  0.68890916    -0.72000
O444        O  0.13885353  0.25199557  0.61753738    -0.71800
O445        O  0.14951574  0.35987351  0.67450876    -0.71300
O446        O  0.04152397  0.17284169  0.65225672    -0.72000
O447        O  0.09381861  0.29707841  0.69792746    -0.71600
O448        O  0.18885013  0.33361926  0.63007260    -0.72200
O449        O  0.28348887  0.29650030  0.67251461    -0.71600
O450        O  0.13614362  0.14875352  0.64438206    -0.72300
O451        O  0.27234342  0.36648685  0.66773629    -0.71700
O452        O  0.19596055  0.16652632  0.67067389    -0.72200
O453        O  0.21273699  0.23160595  0.71507247    -0.72100
O454        O  0.13877507  0.23018016  0.72532544    -0.71900
C455        C  0.01587542  0.15916542  0.67047445     0.79900
C456        C  0.16714733  0.30191411  0.61423139     0.80400
C457        C  0.10964392  0.34062943  0.68764811     0.79300
C458        C  0.30217640  0.34596798  0.66902644     0.79700
C459        C  0.16438048  0.13586071  0.65608658     0.80900
C460        C  0.18055472  0.22843087  0.73005165     0.79900
Zn461      Zn  0.13943586  0.79975969  0.51712407     1.49700
Zn462      Zn  0.22569306  0.80153078  0.48442613     1.49400
Zn463      Zn  0.21278767  0.75239556  0.53306000     1.49100
Zn464      Zn  0.12453149  0.69283943  0.49700794     1.49500
O465        O  0.17584433  0.76174826  0.50790362    -1.81400
O466        O  0.17379025  0.87427686  0.50481709    -0.72000
O467        O  0.29763429  0.81041527  0.49163842    -0.71800
O468        O  0.19522667  0.77644156  0.56144290    -0.71300
O469        O  0.23919591  0.87649298  0.48491132    -0.72000
O470        O  0.14585621  0.81003758  0.54950260    -0.71600
O471        O  0.29183016  0.79326185  0.52774763    -0.72200
O472        O  0.13997954  0.63687780  0.50858671    -0.71600
O473        O  0.19877901  0.76601772  0.45424146    -0.72300
O474        O  0.19609791  0.67627162  0.53612387    -0.71700
O475        O  0.12836527  0.68913670  0.46393958    -0.72200
O476        O  0.05109595  0.67828339  0.50489950    -0.72100
O477        O  0.06075718  0.75767841  0.51198017    -0.71900
C478        C  0.21676997  0.89977071  0.49385669     0.79900
C479        C  0.31887511  0.80984325  0.50995374     0.80400
C480        C  0.16831046  0.79924574  0.56500631     0.79300
C481        C  0.16940898  0.63623831  0.52397411     0.79700
C482        C  0.15983094  0.72060647  0.44920566     0.80900
C483        C  0.03160539  0.70803375  0.50903583     0.79900
Zn484      Zn  0.08503592  0.89566718  0.64802290     1.49700
Zn485      Zn  0.12712278  0.81853882  0.66295054     1.49400
Zn486      Zn  0.12934819  0.90325318  0.69652733     1.49100
Zn487      Zn  0.02100647  0.80412506  0.68376789     1.49500
O488        O  0.09057825  0.85543830  0.67289991    -1.81400
O489        O  0.10585019  0.87717728  0.61898452    -0.72000
O490        O  0.20182362  0.85263639  0.67408253    -0.71800
O491        O  0.14090887  0.97639786  0.68958019    -0.71300
O492        O  0.13659422  0.82525982  0.63060840    -0.72000
O493        O  0.12955524  0.97400874  0.65322266    -0.71600
O494        O  0.20375810  0.91507951  0.69564775    -0.72200
O495        O  0.01556685  0.80439076  0.71702798    -0.71600
O496        O  0.08358467  0.73972404  0.66735825    -0.72300
O497        O  0.09072319  0.87624492  0.72649200    -0.71700
O498        O  0.00451176  0.73136340  0.67460875    -0.72200
O499        O  0.96747979  0.82286738  0.67237744    -0.72100
O500        O  0.01074951  0.88320984  0.64603290    -0.71900
C501        C  0.12646125  0.84841460  0.61516448     0.79900
C502        C  0.22721486  0.89436291  0.68542968     0.80400
C503        C  0.14399488  0.99948642  0.67121228     0.79300
C504        C  0.04553684  0.83642354  0.73164192     0.79700
C505        C  0.03346901  0.71140114  0.66974415     0.80900
C506        C  0.96935466  0.85530661  0.65766473     0.79900
Zn507      Zn  0.55926780  0.88676032  0.49997626     1.49700
Zn508      Zn  0.65209993  0.87225714  0.51894579     1.49400
Zn509      Zn  0.53218105  0.78945046  0.53308410     1.49100
Zn510      Zn  0.57116570  0.79151631  0.48415353     1.49500
O511        O  0.57864810  0.83508774  0.50912956    -1.81400
O512        O  0.61594122  0.95954708  0.50893609    -0.72000
O513        O  0.65368473  0.86332685  0.55121313    -0.71800
O514        O  0.46789879  0.79904786  0.53510120    -0.71300
O515        O  0.68750443  0.95180558  0.51468152    -0.72000
O516        O  0.48707169  0.86617172  0.51192893    -0.71600
O517        O  0.57122118  0.80739269  0.56239829    -0.72200
O518        O  0.51046213  0.71796307  0.48954804    -0.71600
O519        O  0.69269744  0.83878577  0.50669995    -0.72300
O520        O  0.50151847  0.71103976  0.52608001    -0.71700
O521        O  0.63444394  0.78145842  0.48295291    -0.72200
O522        O  0.55762478  0.82000902  0.45541701    -0.72100
O523        O  0.55089225  0.88851249  0.46700444    -0.71900
C524        C  0.66542035  0.97999693  0.51274231     0.79900
C525        C  0.62034748  0.83778391  0.56644537     0.80400
C526        C  0.45506725  0.82952678  0.52499757     0.79300
C527        C  0.49066309  0.69026951  0.50700477     0.79700
C528        C  0.67796976  0.80033411  0.49347561     0.80900
C529        C  0.54954363  0.85857542  0.45157846     0.79900
Zn530      Zn  0.77655452  0.99412632  0.68344277     1.49700
Zn531      Zn  0.68521919  0.88453175  0.66465237     1.49400
Zn532      Zn  0.80405561  0.93111299  0.64806902     1.49100
Zn533      Zn  0.77312405  0.88985385  0.69746272     1.49500
O534        O  0.75950477  0.92507125  0.67331117    -1.81400
O535        O  0.71621497  0.00575313  0.67510118    -0.72000
O536        O  0.67928454  0.87478242  0.63222880    -0.71800
O537        O  0.86441202  0.00617394  0.64476530    -0.71300
O538        O  0.64610354  0.92494786  0.67029625    -0.72000
O539        O  0.84724675  0.04892185  0.67084058    -0.71600
O540        O  0.76174663  0.90744740  0.61979430    -0.72200
O541        O  0.83667824  0.88277475  0.69047933    -0.71600
O542        O  0.65298541  0.80931282  0.67626456    -0.72300
O543        O  0.84066831  0.88883712  0.65379316    -0.71700
O544        O  0.71550157  0.81473143  0.69904938    -0.72200
O545        O  0.78174393  0.92600531  0.72688218    -0.72100
O546        O  0.78581039  0.00134823  0.71665836    -0.71900
C547        C  0.66667605  0.97515404  0.67179198     0.79900
C548        C  0.71196777  0.88535352  0.61648886     0.80400
C549        C  0.87765527  0.04750863  0.65603897     0.79300
C550        C  0.85469584  0.87771273  0.67206605     0.79700
C551        C  0.67226815  0.78778116  0.68878739     0.80900
C552        C  0.78724190  0.97102965  0.73158408     0.79900
Zn553      Zn  0.76131030  0.58843159  0.98965151     1.49700
Zn554      Zn  0.86995615  0.59266306  0.98629360     1.49400
Zn555      Zn  0.84627531  0.64502035  0.02887911     1.49100
Zn556      Zn  0.78649932  0.52446916  0.02372544     1.49500
O557        O  0.81729339  0.58888415  0.00712212    -1.81400
O558        O  0.78348556  0.61516428  0.95845897    -0.72000
O559        O  0.94134748  0.65089219  0.99570015    -0.71800
O560        O  0.80103863  0.68066912  0.03058763    -0.71300
O561        O  0.86319323  0.62276523  0.95737826    -0.72000
O562        O  0.74698541  0.64116673  0.00238424    -0.71600
O563        O  0.92126164  0.69672565  0.01949386    -0.72200
O564        O  0.81346161  0.53081103  0.05466627    -0.71600
O565        O  0.86412227  0.51924716  0.98262741    -0.72300
O566        O  0.85234214  0.61757199  0.05934568    -0.71700
O567        O  0.80433927  0.47622059  0.00907254    -0.72200
O568        O  0.70791612  0.49003110  0.02351122    -0.72100
O569        O  0.69156128  0.51975048  0.99222653    -0.71900
C570        C  0.82789606  0.63091213  0.94891037     0.79900
C571        C  0.95433208  0.69190860  0.00729767     0.80400
C572        C  0.76336767  0.67432818  0.01792132     0.79300
C573        C  0.83907121  0.57131052  0.06661979     0.79700
C574        C  0.83453706  0.47699711  0.99378149     0.80900
C575        C  0.67598625  0.48817633  0.00878310     0.79900
Zn576      Zn  0.98317798  0.77722886  0.86423077     1.49700
Zn577      Zn  0.95472199  0.83372977  0.82630029     1.49400
Zn578      Zn  0.90361250  0.70985959  0.82572498     1.49100
Zn579      Zn  0.87414878  0.76985075  0.86223722     1.49500
O580        O  0.92925660  0.77183618  0.84433753    -1.81400
O581        O  0.04475293  0.85348361  0.86627413    -0.72000
O582        O  0.97165226  0.82185290  0.79538228    -0.71800
O583        O  0.93323659  0.66398609  0.83799131    -0.71300
O584        O  0.02261168  0.88870019  0.83845507    -0.72000
O585        O  0.00694853  0.72776884  0.85362901    -0.71600
O586        O  0.93519978  0.73417534  0.79433844    -0.72200
O587        O  0.80716880  0.72126715  0.84800949    -0.71600
O588        O  0.90476757  0.86298520  0.82781504    -0.72300
O589        O  0.82153875  0.67127027  0.82461277    -0.71700
O590        O  0.87612168  0.84064373  0.86246666    -0.72200
O591        O  0.87023352  0.73614539  0.89192737    -0.72100
O592        O  0.95097681  0.74616347  0.89392986    -0.71900
C593        C  0.05405784  0.89278777  0.85380860     0.79900
C594        C  0.96211385  0.77996556  0.78522511     0.80400
C595        C  0.97924203  0.68082743  0.84633566     0.79300
C596        C  0.79027931  0.68400520  0.83415035     0.79700
C597        C  0.88232733  0.86802477  0.84498391     0.80900
C598        C  0.90455049  0.72866221  0.90182607     0.79900
Zn599      Zn  0.79364713  0.15844554  0.99635204     1.49700
Zn600      Zn  0.68400071  0.14148921  0.01481197     1.49400
Zn601      Zn  0.78871577  0.23912136  0.02897257     1.49100
Zn602      Zn  0.74987239  0.23355813  0.97960731     1.49500
O603        O  0.75384638  0.19287475  0.00469602    -1.81400
O604        O  0.75240321  0.07961420  0.00331874    -0.72000
O605        O  0.67493411  0.14189549  0.04770013    -0.71800
O606        O  0.86446208  0.25738401  0.02983966    -0.71300
O607        O  0.67163538  0.06972211  0.00789880    -0.72000
O608        O  0.86950335  0.20064152  0.00701015    -0.71600
O609        O  0.75191469  0.20895518  0.05850541    -0.72200
O610        O  0.79456464  0.31265989  0.98563028    -0.71600
O611        O  0.62974216  0.15639240  0.00167590    -0.72300
O612        O  0.79382377  0.30870652  0.02240594    -0.71700
O613        O  0.67422565  0.21954900  0.97647112    -0.72200
O614        O  0.77320892  0.21384942  0.95125018    -0.72100
O615        O  0.80192475  0.16092566  0.96399016    -0.71900
C616        C  0.70211276  0.05048724  0.00533878     0.79900
C617        C  0.70566333  0.17041953  0.06290591     0.80400
C618        C  0.89135767  0.24103745  0.01943301     0.79300
C619        C  0.80203405  0.33465742  0.00440187     0.79700
C620        C  0.63171653  0.18925342  0.98717520     0.80900
C621        C  0.79301513  0.18399112  0.94811318     0.79900
Zn622      Zn  0.88896601  0.09227197  0.86761362     1.49700
Zn623      Zn  0.79843023  0.02752467  0.83240649     1.49400
Zn624      Zn  0.81111656  0.13399188  0.85105347     1.49100
Zn625      Zn  0.89814935  0.13663863  0.81877722     1.49500
O626        O  0.84928898  0.09752592  0.84253875    -1.81400
O627        O  0.87606289  0.01738491  0.87067693    -0.72000
O628        O  0.72419781  0.00941719  0.84231251    -0.71800
O629        O  0.81679892  0.14463248  0.88332080    -0.71300
O630        O  0.81880190  0.97480366  0.84377779    -0.72000
O631        O  0.86883301  0.11482107  0.89597590    -0.71600
O632        O  0.73173540  0.08885106  0.84666145    -0.72200
O633        O  0.91010822  0.21041534  0.81847152    -0.71600
O634        O  0.80021227  0.02384799  0.79910241    -0.72300
O635        O  0.84573916  0.20901529  0.83878105    -0.71700
O636        O  0.87059511  0.10058967  0.78907779    -0.72200
O637        O  0.97125350  0.14819538  0.82549798    -0.72100
O638        O  0.96831008  0.13667971  0.86194702    -0.71900
C639        C  0.84999030  0.97645907  0.85888803     0.79900
C640        C  0.70353928  0.03839048  0.84603132     0.80400
C641        C  0.83975220  0.13551729  0.89912502     0.79300
C642        C  0.88824948  0.23413128  0.82742964     0.79700
C643        C  0.83129918  0.05536426  0.78423083     0.80900
C644        C  0.99418906  0.15141807  0.84379443     0.79900
Zn645      Zn  0.41446933  0.20026895  0.98842011     1.49700
Zn646      Zn  0.41823891  0.30886184  0.98811358     1.49400
Zn647      Zn  0.36210064  0.22810506  0.02960679     1.49100
Zn648      Zn  0.48229924  0.27931902  0.02303158     1.49500
O649        O  0.41794089  0.25455005  0.00729313    -1.81400
O650        O  0.38621670  0.20257521  0.95879021    -0.72000
O651        O  0.35164302  0.31221069  0.99438201    -0.71800
O652        O  0.32924638  0.14632799  0.03205266    -0.71300
O653        O  0.40774483  0.28713445  0.95639888    -0.72000
O654        O  0.36297331  0.13200731  0.00153221    -0.71600
O655        O  0.30748842  0.24699208  0.01909983    -0.72200
O656        O  0.47683045  0.29261584  0.05490471    -0.71600
O657        O  0.48858377  0.37878714  0.99022898    -0.72300
O658        O  0.39167222  0.26727205  0.05930609    -0.71700
O659        O  0.53202956  0.34948929  0.01086620    -0.72200
O660        O  0.51439581  0.23305254  0.01931676    -0.72100
O661        O  0.48423772  0.19981494  0.98622550    -0.71900
C662        C  0.38893674  0.24146768  0.94803624     0.79900
C663        C  0.31000378  0.28238608  0.00576178     0.80400
C664        C  0.33306049  0.11495439  0.01843899     0.79300
C665        C  0.43922262  0.28986723  0.06653026     0.79700
C666        C  0.53101391  0.38578630  0.99944064     0.80900
C667        C  0.51576647  0.20874193  0.00225797     0.79900
Zn668      Zn  0.20989110  0.13563531  0.86621742     1.49700
Zn669      Zn  0.24588232  0.13026019  0.81814655     1.49400
Zn670      Zn  0.23546681  0.22807357  0.83096974     1.49100
Zn671      Zn  0.32902977  0.21421177  0.84997795     1.49500
O672        O  0.25501963  0.17769506  0.84152009    -1.81400
O673        O  0.17615126  0.05724288  0.86006921    -0.72000
O674        O  0.24264542  0.16000158  0.78809803    -0.71800
O675        O  0.16295803  0.20838155  0.84282151    -0.71300
O676        O  0.17929201  0.06141065  0.82339565    -0.72000
O677        O  0.14733583  0.14794658  0.86896071    -0.71600
O678        O  0.22836057  0.22540250  0.79769720    -0.72200
O679        O  0.36429171  0.29300283  0.84413025    -0.71600
O680        O  0.30280169  0.11115724  0.82035325    -0.72300
O681        O  0.29273575  0.30168012  0.83986337    -0.71700
O682        O  0.36769257  0.17664192  0.83910882    -0.72200
O683        O  0.33266709  0.20959228  0.88240446    -0.72100
O684        O  0.25143342  0.15262862  0.89466920    -0.71900
C685        C  0.16102905  0.03545622  0.84133946     0.79900
C686        C  0.23256585  0.19664966  0.78301128     0.80400
C687        C  0.13286324  0.17545125  0.85755084     0.79300
C688        C  0.34245494  0.32163100  0.84317946     0.79700
C689        C  0.34818380  0.13220681  0.82940092     0.80900
C690        C  0.30064970  0.18398966  0.89802954     0.79900
Zn691      Zn  0.53540077  0.45745809  0.68613739     1.49700
Zn692      Zn  0.61845191  0.47844936  0.65035081     1.49400
Zn693      Zn  0.55865332  0.54129583  0.64652618     1.49100
Zn694      Zn  0.64342138  0.56423814  0.68674042     1.49500
O695        O  0.58905555  0.51197946  0.66745357    -1.81400
O696        O  0.53607428  0.38818334  0.68494134    -0.72000
O697        O  0.63296492  0.50367154  0.61910497    -0.71800
O698        O  0.47618416  0.49509195  0.64676123    -0.71300
O699        O  0.57320023  0.40027516  0.65172640    -0.72000
O700        O  0.46627138  0.44049368  0.67452516    -0.71600
O701        O  0.59164311  0.54996462  0.61517265    -0.72200
O702        O  0.64917376  0.63499577  0.67937406    -0.71600
O703        O  0.68659825  0.49356425  0.66300408    -0.72300
O704        O  0.58018802  0.61450735  0.65715245    -0.71700
O705        O  0.71255040  0.55942104  0.68666038    -0.72200
O706        O  0.61722195  0.55380772  0.71816978    -0.72100
O707        O  0.53642990  0.48320896  0.71692279    -0.71900
C708        C  0.54786936  0.37042859  0.66800111     0.79900
C709        C  0.62076907  0.53235171  0.60745296     0.80400
C710        C  0.44660526  0.45611180  0.65959374     0.79300
C711        C  0.61776591  0.64706422  0.66940474     0.79700
C712        C  0.72042535  0.52556939  0.67653222     0.80900
C713        C  0.57267398  0.52252006  0.72714352     0.79900
Zn714      Zn  0.46295673  0.60298196  0.80616106     1.49700
Zn715      Zn  0.45210559  0.56444996  0.85561013     1.49400
Zn716      Zn  0.53943182  0.56217376  0.82482999     1.49100
Zn717      Zn  0.55263494  0.66970791  0.84229221     1.49500
O718        O  0.50215985  0.60002250  0.83203892    -1.81400
O719        O  0.38293830  0.55815616  0.81101005    -0.72000
O720        O  0.43536290  0.48874845  0.85649408    -0.71800
O721        O  0.53765649  0.55145904  0.79234481    -0.71300
O722        O  0.38281453  0.55836091  0.84769499    -0.72000
O723        O  0.48426247  0.57841110  0.77847138    -0.71600
O724        O  0.50086858  0.48789726  0.83770244    -0.72200
O725        O  0.62675935  0.68513783  0.83552925    -0.71600
O726        O  0.47625601  0.60283838  0.88516657    -0.72300
O727        O  0.61760390  0.60477173  0.83188714    -0.71700
O728        O  0.54841208  0.67774897  0.87525248    -0.72200
O729        O  0.53404621  0.72169663  0.82930139    -0.72100
O730        O  0.47496848  0.67785489  0.80304563    -0.71900
C731        C  0.35880428  0.55064600  0.82940979     0.79900
C732        C  0.45695836  0.46399174  0.84821912     0.80400
C733        C  0.51450280  0.55870202  0.77604912     0.79300
C734        C  0.64657125  0.65491519  0.83362344     0.79700
C735        C  0.51507462  0.64841747  0.88995002     0.80900
C736        C  0.50151353  0.71912893  0.81465702     0.79900
Zn737      Zn  0.41857240  0.88112547  0.80981518     1.49700
Zn738      Zn  0.46365263  0.99755670  0.82980913     1.49400
Zn739      Zn  0.35374856  0.90540101  0.84520895     1.49100
Zn740      Zn  0.45707890  0.90451036  0.85948056     1.45900
O741        O  0.42361142  0.92196511  0.83603211    -1.81400
O742        O  0.44531429  0.92913422  0.78254557    -0.72000
O743        O  0.42184828  0.03446131  0.83606652    -0.71800
O744        O  0.30063343  0.83285997  0.83417378    -0.71300
O745        O  0.47637343  0.00854583  0.79755749    -0.72000
O746        O  0.34303354  0.81980948  0.80649436    -0.71600
O747        O  0.34032222  0.96408960  0.83507799    -0.72200
O748        O  0.41486244  0.89099984  0.88872226    -0.71600
O749        O  0.53733149  0.03120062  0.84268514    -0.72300
O750        O  0.34563234  0.89849478  0.87813056    -0.71700
O751        O  0.53427960  0.96263983  0.86063990    -0.72200
O752        O  0.46378101  0.84134567  0.85075604    -0.72100
O753        O  0.46129215  0.84430295  0.81405725    -0.71900
C754        C  0.46762271  0.97950614  0.78082310     0.79900
C755        C  0.37172466  0.01417826  0.83418773     0.80400
C756        C  0.30230075  0.80403703  0.81887950     0.79300
C757        C  0.37142291  0.89038961  0.89311184     0.79700
C758        C  0.56027160  0.00964747  0.85272043     0.80900
C759        C  0.47087563  0.82698938  0.83183366     0.79900
Zn760      Zn  0.56446413  0.10282756  0.69077376     1.49700
Zn761      Zn  0.46429951  0.11313434  0.69458893     1.49400
Zn762      Zn  0.54272656  0.16235484  0.65409763     1.49100
Zn763      Zn  0.46980971  0.03778334  0.65644854     1.49500
O764        O  0.50896572  0.10288828  0.67367343    -1.81400
O765        O  0.54104241  0.07861944  0.72185788    -0.72000
O766        O  0.47474329  0.18755575  0.69343325    -0.71800
O767        O  0.62196465  0.19359382  0.65443964    -0.71300
O768        O  0.47497087  0.09543671  0.72561534    -0.72000
O769        O  0.63540774  0.17064911  0.68789735    -0.71600
O770        O  0.53039362  0.21904619  0.66496150    -0.72200
O771        O  0.45986543  0.05779511  0.62435128    -0.71600
O772        O  0.38958145  0.05820794  0.68902586    -0.72300
O773        O  0.51173526  0.14547668  0.62360697    -0.71700
O774        O  0.39574263  0.99478256  0.67094998    -0.72200
O775        O  0.51169967  0.99658242  0.65635328    -0.72100
O776        O  0.57694711  0.04867599  0.67880571    -0.71900
C777        C  0.50426396  0.07830624  0.73328572     0.79900
C778        C  0.50378308  0.22515495  0.68012705     0.80400
C779        C  0.65281385  0.19840466  0.67027318     0.79300
C780        C  0.47863088  0.10255441  0.61427711     0.79700
C781        C  0.36907440  0.01094275  0.68204322     0.80900
C782        C  0.55530913  0.00909163  0.66618648     0.79900
Zn783      Zn  0.09712900  0.57593810  0.81482781     1.49700
Zn784      Zn  0.15685469  0.55000333  0.84848027     1.49400
Zn785      Zn  0.03246460  0.47716602  0.84854938     1.49100
Zn786      Zn  0.09987969  0.47347447  0.80783410     1.49500
O787        O  0.09561080  0.51758233  0.83026513    -1.81400
O788        O  0.16803600  0.64326113  0.81566594    -0.72000
O789        O  0.14255498  0.51332314  0.87830484    -0.71800
O790        O  0.99386528  0.52068376  0.85142110    -0.71300
O791        O  0.18970168  0.63057338  0.84937571    -0.72000
O792        O  0.04731683  0.59061729  0.83036959    -0.71600
O793        O  0.05484618  0.46104679  0.87882905    -0.72200
O794        O  0.04980872  0.39783876  0.81604754    -0.71600
O795        O  0.21063407  0.53814700  0.83408890    -0.72300
O796        O  0.98669175  0.40477891  0.83423495    -0.71700
O797        O  0.17708599  0.48921981  0.80410897    -0.72200
O798        O  0.06601960  0.48115880  0.77990853    -0.72100
O799        O  0.06706570  0.55717080  0.78446613    -0.71900
C800        C  0.19588896  0.66109806  0.83298351     0.79900
C801        C  0.10025801  0.47763175  0.88772055     0.80400
C802        C  0.00782796  0.56670697  0.84336161     0.79300
C803        C  0.00267624  0.37738639  0.82370997     0.79700
C804        C  0.21574375  0.51539359  0.81723398     0.80900
C805        C  0.05376185  0.51548031  0.77354031     0.79900
Zn806      Zn  0.91578299  0.48075737  0.68838562     1.49700
Zn807      Zn  0.85471642  0.40096421  0.65274146     1.49400
Zn808      Zn  0.97654572  0.45837449  0.64881219     1.49100
Zn809      Zn  0.91664257  0.37322592  0.68816492     1.49500
O810        O  0.91714110  0.42831560  0.66969261    -1.81400
O811        O  0.84627461  0.48309524  0.68712047    -0.72000
O812        O  0.86505802  0.38139150  0.62230871    -0.71800
O813        O  0.00993136  0.53989628  0.64723532    -0.71300
O814        O  0.82356571  0.44854958  0.65361435    -0.72000
O815        O  0.96672746  0.54881844  0.67564313    -0.71600
O816        O  0.95259278  0.42108149  0.61878541    -0.72200
O817        O  0.98001654  0.36554529  0.67951676    -0.71600
O818        O  0.80161686  0.33357065  0.66596340    -0.72300
O819        O  0.03027177  0.43974258  0.65991186    -0.71700
O820        O  0.84227823  0.30520648  0.68865537    -0.72200
O821        O  0.93822620  0.40011443  0.71886572    -0.72100
O822        O  0.94603226  0.48010888  0.71836272    -0.71900
C823        C  0.81865038  0.47384820  0.66962961     0.79900
C824        C  0.90611138  0.39022565  0.61138521     0.80400
C825        C  0.00042984  0.56879708  0.66009471     0.79300
C826        C  0.02446350  0.39941115  0.67070705     0.79700
C827        C  0.80037902  0.29847329  0.67890821     0.80900
C828        C  0.95341922  0.44485972  0.72763740     0.79900
C829        C  0.98384999  0.45632349  0.74822287    -0.13700
C830        C  0.02090578  0.50578701  0.75375850    -0.28800
H831        H  0.97975791  0.42282835  0.75788232     0.15400
H832        H  0.02513728  0.53962971  0.74434461     0.15900
C833        C  0.70901685  0.23928689  0.66771691    -0.13700
C834        C  0.74811385  0.24980862  0.68226209    -0.28800
H835        H  0.71806490  0.26396279  0.65298190     0.15400
H836        H  0.74102826  0.22467290  0.69667373     0.15900
C837        C  0.48382757  0.00533534  0.75896933    -0.13700
C838        C  0.49314112  0.05502943  0.75552102    -0.28800
H839        H  0.48577308  0.98257224  0.74525941     0.15400
H840        H  0.48645695  0.07625441  0.76862659     0.15900
C841        C  0.25752502  0.74946971  0.81644271    -0.13700
C842        C  0.23596283  0.71802258  0.83436506    -0.28800
H843        H  0.24680780  0.73296775  0.80002614     0.15400
H844        H  0.25079679  0.73381235  0.85062577     0.15900
C845        C  0.30233607  0.53486792  0.83056186    -0.13700
C846        C  0.26866995  0.52104877  0.81343032    -0.28800
H847        H  0.28812394  0.53670640  0.84694730     0.15400
H848        H  0.28053470  0.51616411  0.79703255     0.15900
C849        C  0.49075306  0.78935395  0.83100910    -0.13700
C850        C  0.49021015  0.76308494  0.81274941    -0.28800
H851        H  0.50294726  0.78013282  0.84659046     0.15400
H852        H  0.47432259  0.76877221  0.79742567     0.15900
C853        C  0.53463100  0.31495615  0.66667342    -0.13700
C854        C  0.50835083  0.27773184  0.68228006    -0.28800
H855        H  0.54943152  0.30496801  0.65207739     0.15400
H856        H  0.49222759  0.28647619  0.69677335     0.15900
C857        C  0.77766149  0.48925429  0.66712554    -0.13700
C858        C  0.76841653  0.52073351  0.68047420    -0.28800
H859        H  0.75233819  0.47194008  0.65288577     0.15400
H860        H  0.79403270  0.54034172  0.69438104     0.15900
C861        C  0.56261751  0.53377797  0.74961923    -0.13700
C862        C  0.52270953  0.54331404  0.75389005    -0.28800
H863        H  0.59154147  0.53992153  0.76223800     0.15400
H864        H  0.49671627  0.54144350  0.74064568     0.15900
C865        C  0.37640469  0.10184927  0.83036763    -0.13700
C866        C  0.34833134  0.04841040  0.83074010    -0.28800
H867        H  0.41889201  0.12266206  0.83324898     0.15400
H868        H  0.30543578  0.02834518  0.82902864     0.15900
C869        C  0.37459594  0.37945081  0.84609385    -0.13700
C870        C  0.42761135  0.40558908  0.84876853    -0.28800
H871        H  0.35376440  0.40172278  0.84522375     0.15400
H872        H  0.44957393  0.38448097  0.84827179     0.15900
C873        C  0.36851243  0.23347077  0.92557855    -0.13700
C874        C  0.32176325  0.19089264  0.92047349    -0.28800
H875        H  0.38986677  0.26509027  0.91354071     0.15400
H876        H  0.29825622  0.16169133  0.93309666     0.15900
C877        C  0.96749843  0.32013716  0.82040023    -0.13700
C878        C  0.91613905  0.29274528  0.82660589    -0.28800
H879        H  0.98621194  0.29911817  0.81352567     0.15400
H880        H  0.89715464  0.31312204  0.83382176     0.15900
C881        C  0.05204456  0.17191223  0.84345521    -0.13700
C882        C  0.07816138  0.16552824  0.86044427    -0.28800
H883        H  0.07284561  0.18837906  0.82793596     0.15400
H884        H  0.05681710  0.14580931  0.87549386     0.15900
C885        C  0.64543657  0.01191160  0.84968386    -0.13700
C886        C  0.61892999  0.03824512  0.85311906    -0.28800
H887        H  0.62328984  0.96892807  0.84859501     0.15400
H888        H  0.64011340  0.08130143  0.85290530     0.15900
C889        C  0.80523718  0.17496352  0.92555945    -0.13700
C890        C  0.83142948  0.14845861  0.92164066    -0.28800
H891        H  0.79167380  0.18957580  0.91194776     0.15400
H892        H  0.84625804  0.13511046  0.93524569     0.15900
C893        C  0.55462574  0.19055674  0.00188524    -0.13700
C894        C  0.58486182  0.19568343  0.98422364    -0.28800
H895        H  0.56395331  0.17957664  0.01774299     0.15400
H896        H  0.58001091  0.21233479  0.96888864     0.15900
C897        C  0.73271126  0.65590141  0.82959517    -0.13700
C898        C  0.70461500  0.67991904  0.83453520    -0.28800
H899        H  0.71352155  0.61621418  0.82286792     0.15400
H900        H  0.72533090  0.72077562  0.84004958     0.15900
C901        C  0.86350657  0.90652961  0.84400517    -0.13700
C902        C  0.85935266  0.93142466  0.86179499    -0.28800
H903        H  0.85770448  0.91858811  0.82770368     0.15400
H904        H  0.87020873  0.92366369  0.87795962     0.15900
C905        C  0.10181493  0.94504611  0.85680879    -0.13700
C906        C  0.11964719  0.97967146  0.83976208    -0.28800
H907        H  0.12097660  0.95565323  0.87277700     0.15400
H908        H  0.10168132  0.96697574  0.82362836     0.15900
C909        C  0.97815406  0.59443865  0.84817756    -0.13700
C910        C  0.00409499  0.64771834  0.84636585    -0.28800
H911        H  0.93590304  0.57208063  0.85177516     0.15400
H912        H  0.04706988  0.66913602  0.84452257     0.15900
C913        C  0.62065522  0.44620185  0.01127003    -0.13700
C914        C  0.58139672  0.43634854  0.99706283    -0.28800
H915        H  0.61273401  0.41966293  0.02530118     0.15400
H916        H  0.58736606  0.46312048  0.98337221     0.15900
C917        C  0.83322460  0.42643371  0.98958166    -0.13700
C918        C  0.81774159  0.39078833  0.00628113    -0.28800
H919        H  0.84098257  0.41718590  0.97317457     0.15400
H920        H  0.81347768  0.40279317  0.02274335     0.15900
C921        C  0.83995560  0.66232530  0.92829441    -0.13700
C922        C  0.89046437  0.69694072  0.92237452    -0.28800
H923        H  0.80724353  0.65952881  0.91864032     0.15400
H924        H  0.92290703  0.69975934  0.93225016     0.15900
C925        C  0.79529420  0.98784784  0.75490519    -0.13700
C926        C  0.82177390  0.03922813  0.76080418    -0.28800
H927        H  0.78166019  0.95707131  0.76756530     0.15400
H928        H  0.83910208  0.07002593  0.74815711     0.15900
C929        C  0.64871734  0.72995437  0.68958415    -0.13700
C930        C  0.62528734  0.70062742  0.67176194    -0.28800
H931        H  0.66027663  0.71301095  0.70304140     0.15400
H932        H  0.61397478  0.71718304  0.65808246     0.15900
C933        C  0.58309705  0.97827880  0.66374992    -0.13700
C934        C  0.63392648  0.00053844  0.67065757    -0.28800
H935        H  0.56255244  0.93846752  0.65714810     0.15400
H936        H  0.65417791  0.04149781  0.67604828     0.15900
C937        C  0.63950955  0.84494489  0.58931663    -0.13700
C938        C  0.69184106  0.87280329  0.59383439    -0.28800
H939        H  0.61035673  0.82845320  0.60258262     0.15400
H940        H  0.72091419  0.88798870  0.58051334     0.15900
C941        C  0.02661665  0.82884659  0.75493003    -0.13700
C942        C  0.98270740  0.78466992  0.76235416    -0.28800
H943        H  0.04884952  0.86124433  0.76621212     0.15400
H944        H  0.96193827  0.75091758  0.75156389     0.15900
C945        C  0.28577381  0.92314188  0.68429154    -0.13700
C946        C  0.31244911  0.97583457  0.68715535    -0.28800
H947        H  0.30603534  0.90319692  0.67790363     0.15400
H948        H  0.29127096  0.99533972  0.69305398     0.15900
C949        C  0.00722033  0.65368603  0.66779418    -0.13700
C950        C  0.02836791  0.62712577  0.65784987    -0.28800
H951        H  0.96789271  0.63183960  0.67523350     0.15400
H952        H  0.06605998  0.64798504  0.64909830     0.15900
C953        C  0.89321570  0.85901172  0.67240952    -0.13700
C954        C  0.92406026  0.86407317  0.65500704    -0.28800
H955        H  0.89962128  0.84487819  0.68811894     0.15400
H956        H  0.92062698  0.88181312  0.63971121     0.15900
C957        C  0.37623822  0.82840503  0.51018415    -0.13700
C958        C  0.40024455  0.81926861  0.52725842    -0.28800
H959        H  0.39858933  0.84655570  0.49512457     0.15400
H960        H  0.37737940  0.79776235  0.54176589     0.15900
C961        C  0.16203377  0.81249569  0.58771463    -0.13700
C962        C  0.13766894  0.84037204  0.59232060    -0.28800
H963        H  0.17653251  0.79778239  0.60093957     0.15400
H964        H  0.12416550  0.85608496  0.57910568     0.15900
C965        C  0.19165166  0.22287607  0.75344294    -0.13700
C966        C  0.22455566  0.20504083  0.75955502    -0.28800
H967        H  0.17020149  0.23123873  0.76598698     0.15400
H968        H  0.24288678  0.19269996  0.74708747     0.15900
C969        C  0.07046845  0.39135486  0.67238501    -0.13700
C970        C  0.07578257  0.36465527  0.68938854    -0.28800
H971        H  0.09866489  0.40491493  0.65874663     0.15400
H972        H  0.04709185  0.35124677  0.70285892     0.15900
C973        C  0.15681171  0.08219555  0.65377694    -0.13700
C974        C  0.16335853  0.05692830  0.67114169    -0.28800
H975        H  0.13832227  0.06057413  0.63883968     0.15400
H976        H  0.17857183  0.07781924  0.68654475     0.15900
C977        C  0.95825563  0.12181531  0.67073824    -0.13700
C978        C  0.93172035  0.09293522  0.65318802    -0.28800
H979        H  0.93789560  0.11441177  0.68654036     0.15400
H980        H  0.95254088  0.09725746  0.63773759     0.15900
C981        C  0.38788966  0.42708025  0.65788096    -0.13700
C982        C  0.36025980  0.37884327  0.66764709    -0.28800
H983        H  0.36776148  0.44465796  0.64917886     0.15400
H984        H  0.38167402  0.36081279  0.67493251     0.15900
C985        C  0.17691470  0.58996408  0.52645823    -0.13700
C986        C  0.18535604  0.56894058  0.50834055    -0.28800
H987        H  0.18415645  0.57898438  0.54270700     0.15400
H988        H  0.18354280  0.58468804  0.49223202     0.15900
C989        C  0.45129231  0.63381736  0.50419698    -0.13700
C990        C  0.43170054  0.59697595  0.52044666    -0.28800
H991        H  0.43453663  0.62281018  0.48777591     0.15400
H992        H  0.44931365  0.60525332  0.53673071     0.15900
C993        C  0.21673121  0.37279869  0.58686866    -0.13700
C994        C  0.17550834  0.32424432  0.59162518    -0.28800
H995        H  0.24593645  0.39492875  0.59941478     0.15400
H996        H  0.14904532  0.30013915  0.57861329     0.15900
C997        C  0.44245781  0.35143675  0.09571427    -0.13700
C998        C  0.45324749  0.31390352  0.08869504    -0.28800
H999        H  0.41734661  0.36123185  0.08584165     0.15400
H1000       H  0.48001242  0.30582506  0.09825991     0.15900
C1001       C  0.31881642  0.47454221  0.42433363    -0.13700
C1002       C  0.35652201  0.46425349  0.41684732    -0.28800
H1003       H  0.30985782  0.50088501  0.41484202     0.15400
H1004       H  0.36764190  0.44003838  0.42670081     0.15900
C1005       C  0.46403497  0.50102169  0.25705105    -0.13700
C1006       C  0.44892844  0.45103766  0.25113387    -0.28800
H1007       H  0.49350147  0.53432635  0.24731626     0.15400
H1008       H  0.41968371  0.41781573  0.26098438     0.15900
C1009       C  0.85038344  0.51975479  0.09719602    -0.13700
C1010       C  0.85378977  0.56508543  0.08938627    -0.28800
H1011       H  0.83701592  0.48580337  0.08648211     0.15400
H1012       H  0.86838340  0.59934360  0.10000537     0.15900
C1013       C  0.72551417  0.50936860  0.19389863    -0.13700
C1014       C  0.69554715  0.49504565  0.17560495    -0.28800
H1015       H  0.70714877  0.50467392  0.20999599     0.15400
H1016       H  0.71372734  0.49580685  0.15982222     0.15900
C1017       C  0.12295368  0.65235943  0.41994758    -0.13700
C1018       C  0.15096979  0.70392244  0.42577710    -0.28800
H1019       H  0.10755266  0.62168359  0.43267702     0.15400
H1020       H  0.16975856  0.73441656  0.41308321     0.15900
C1021       C  0.02612026  0.54845975  0.25965901    -0.13700
C1022       C  0.97405613  0.53051792  0.25633511    -0.28800
H1023       H  0.05315222  0.55766631  0.24579553     0.15400
H1024       H  0.94715195  0.52117839  0.27026388     0.15900
C1025       C  0.22598040  0.52461077  0.34010804    -0.13700
C1026       C  0.24393143  0.50731232  0.32342356    -0.28800
H1027       H  0.24406898  0.53006657  0.35626189     0.15400
H1028       H  0.22480864  0.49827743  0.30744083     0.15900
C1029       C  0.68781104  0.15846471  0.08615706    -0.13700
C1030       C  0.63622245  0.12879169  0.09202013    -0.28800
H1031       H  0.71783993  0.17612086  0.09885111     0.15400
H1032       H  0.60564899  0.11429187  0.07948735     0.15900
C1033       C  0.75256619  0.27198386  0.18433606    -0.13700
C1034       C  0.75592421  0.31289847  0.19555946    -0.28800
H1035       H  0.78284406  0.27934490  0.17205160     0.15400
H1036       H  0.72710603  0.30609470  0.20843355     0.15900
C1037       C  0.50144943  0.25109640  0.18928238    -0.13700
C1038       C  0.52273931  0.23582509  0.17321682    -0.28800
H1039       H  0.48938749  0.22988150  0.20495583     0.15400
H1040       H  0.53083968  0.25546821  0.15717709     0.15900
C1041       C  0.53003946  0.90855666  0.42298151    -0.13700
C1042       C  0.53607009  0.86699424  0.42887373    -0.28800
H1043       H  0.53880959  0.93984639  0.43468497     0.15400
H1044       H  0.52981359  0.83732612  0.41668810     0.15900
C1045       C  0.27048595  0.75772608  0.32051112    -0.13700
C1046       C  0.29726532  0.78384289  0.33856064    -0.28800
H1047       H  0.29072691  0.76561417  0.30467950     0.15400
H1048       H  0.27793674  0.77164759  0.35461647     0.15900
C1049       C  0.47855229  0.71794865  0.34299425    -0.13700
C1050       C  0.50923541  0.75891438  0.32929499    -0.28800
H1051       H  0.46069842  0.72497982  0.35739009     0.15400
H1052       H  0.52935432  0.75363648  0.31528198     0.15900
C1053       C  0.52877391  0.98172159  0.25919124    -0.13700
C1054       C  0.53720638  0.03082287  0.25467776    -0.28800
H1055       H  0.53503370  0.95917628  0.24655436     0.15400
H1056       H  0.53507955  0.05487677  0.26779363     0.15900
C1057       C  0.07735999  0.73568227  0.18151038    -0.13700
C1058       C  0.02581313  0.70890829  0.17544516    -0.28800
H1059       H  0.09609219  0.71542532  0.18919042     0.15400
H1060       H  0.00745759  0.73087122  0.16903323     0.15900
C1061       C  0.35766519  0.00364832  0.16083299    -0.13700
C1062       C  0.38333053  0.97671048  0.16482504    -0.28800
H1063       H  0.38016461  0.04469663  0.15524690     0.15400
H1064       H  0.36172471  0.93601661  0.17084723     0.15900
C1065       C  0.30409910  0.87755270  0.92176888    -0.13700
C1066       C  0.34903549  0.87745599  0.91586887    -0.28800
H1067       H  0.28524040  0.89144436  0.91013672     0.15400
H1068       H  0.36887091  0.86549037  0.92785897     0.15900
C1069       C  0.04094981  0.75089833  0.98970527    -0.13700
C1070       C  0.00995132  0.73365704  0.00782429    -0.28800
H1071       H  0.02424802  0.73989619  0.97330659     0.15400
H1072       H  0.02699738  0.74814003  0.02396666     0.15900
C1073       C  0.28715014  0.02575108  0.00388167    -0.13700
C1074       C  0.30396285  0.05696907  0.02175767    -0.28800
H1075       H  0.28668965  0.04284352  0.98792268     0.15400
H1076       H  0.30120382  0.04031994  0.03813166     0.15900
C1077       C  0.18946401  0.85065640  0.08215380    -0.13700
C1078       C  0.20346389  0.90053148  0.08794775    -0.28800
H1079       H  0.15989519  0.81723011  0.09179841     0.15400
H1080       H  0.23247614  0.93379071  0.07804641     0.15900
C1081       C  0.63850172  0.92312535  0.18081148    -0.13700
C1082       C  0.66369558  0.97612337  0.17842971    -0.28800
H1083       H  0.59542198  0.90017018  0.18081892     0.15400
H1084       H  0.70676941  0.99803705  0.17713177     0.15900
C1085       C  0.92740696  0.84366990  0.14519825    -0.13700
C1086       C  0.95727524  0.85564702  0.16343831    -0.28800
H1087       H  0.94572791  0.85031169  0.12898440     0.15400
H1088       H  0.93914541  0.85337355  0.17941196     0.15900
C1089       C  0.62873431  0.64457065  0.16742094    -0.13700
C1090       C  0.57857261  0.61772883  0.15951435    -0.28800
H1091       H  0.64606159  0.62261591  0.17482523     0.15400
H1092       H  0.56136492  0.63823408  0.15082057     0.15900
C1093       C  0.56077415  0.71485979  0.91966514    -0.13700
C1094       C  0.52003116  0.66800898  0.91288522    -0.28800
H1095       H  0.59349582  0.73871858  0.90844216     0.15400
H1096       H  0.48858061  0.64333075  0.92449926     0.15900
C1097       C  0.69364400  0.96407202  0.99468563    -0.13700
C1098       C  0.67655058  0.99269085  0.00570873    -0.28800
H1099       H  0.72946639  0.98332645  0.98463267     0.15400
H1100       H  0.63889827  0.97262661  0.01456030     0.15900
C1101       C  0.42508542  0.81358556  0.00092673    -0.13700
C1102       C  0.41386481  0.84011214  0.01627581    -0.28800
H1103       H  0.39987449  0.79778889  0.98655588     0.15400
H1104       H  0.43916675  0.85749552  0.03048600     0.15900
C1105       C  0.73597004  0.70452887  0.02078801    -0.13700
C1106       C  0.72021323  0.71952684  0.00265665    -0.28800
H1107       H  0.72332906  0.70869407  0.03714871     0.15400
H1108       H  0.73621310  0.71838442  0.98657904     0.15900
C1109       C  0.67367443  0.81016728  0.08636336    -0.13700
C1110       C  0.62277659  0.79735468  0.08378690    -0.28800
H1111       H  0.69681811  0.81041921  0.07221037     0.15400
H1112       H  0.59996033  0.80054220  0.09728019     0.15900
C1113       C  0.29692192  0.35207795  0.17921857    -0.13700
C1114       C  0.27213591  0.38047273  0.17727866    -0.28800
H1115       H  0.27387045  0.31011720  0.18341404     0.15400
H1116       H  0.29407549  0.42209349  0.17251952     0.15900
C1117       C  0.13490967  0.12023957  0.16939307    -0.13700
C1118       C  0.15304934  0.10359775  0.15257570    -0.28800
H1119       H  0.12910740  0.10137158  0.18551306     0.15400
H1120       H  0.16268158  0.12396838  0.13670137     0.15900
C1121       C  0.90336449  0.08276636  0.15809036    -0.13700
C1122       C  0.89716788  0.04255018  0.14543096    -0.28800
H1123       H  0.87486685  0.07469099  0.17128646     0.15400
H1124       H  0.92397590  0.05008220  0.13163008     0.15900
C1125       C  0.99055028  0.37761559  0.16234353    -0.13700
C1126       C  0.01565648  0.43070780  0.16023722    -0.28800
H1127       H  0.94745505  0.35552098  0.16345610     0.15400
H1128       H  0.05872284  0.45372333  0.16054278     0.15900
C1129       C  0.15157778  0.46650215  0.91796758    -0.13700
C1130       C  0.10414946  0.45434623  0.90925387    -0.28800
H1131       H  0.18757188  0.49501445  0.90934951     0.15400
H1132       H  0.06789393  0.42773539  0.91818966     0.15900
C1133       C  0.25097739  0.30903023  0.98686749    -0.13700
C1134       C  0.26480428  0.29168313  0.00498924    -0.28800
H1135       H  0.26708278  0.30864024  0.97074752     0.15400
H1136       H  0.24550933  0.28935136  0.02066744     0.15900
C1137       C  0.15579198  0.59340975  0.01307185    -0.13700
C1138       C  0.18179672  0.63308296  0.99829663    -0.28800
H1139       H  0.13730725  0.59879501  0.02763433     0.15400
H1140       H  0.19798115  0.62555558  0.98347636     0.15900
C1141       C  0.41087182  0.57842329  0.01627743    -0.13700
C1142       C  0.37376491  0.56330923  0.00046229    -0.28800
H1143       H  0.40273237  0.55668977  0.03177641     0.15400
H1144       H  0.38414553  0.58554933  0.98498927     0.15900
C1145       C  0.98060502  0.27846413  0.00311908    -0.13700
C1146       C  0.94946976  0.27407854  0.02035812    -0.28800
H1147       H  0.96465276  0.25074352  0.98958107     0.15400
H1148       H  0.96583765  0.30246543  0.03366351     0.15900
C1149       C  0.14572230  0.37507483  0.08296686    -0.13700
C1150       C  0.12788382  0.32352945  0.08776569    -0.28800
H1151       H  0.14641403  0.40164142  0.09557725     0.15400
H1152       H  0.12401101  0.29650470  0.07472601     0.15900
C1153       C  0.46431903  0.15017501  0.58326676    -0.13700
C1154       C  0.46173577  0.10536777  0.59129294    -0.28800
H1155       H  0.47694413  0.18369027  0.59419037     0.15400
H1156       H  0.44650252  0.07043920  0.58105477     0.15900
C1157       C  0.28950082  0.27938128  0.50542218    -0.13700
C1158       C  0.31808889  0.27287995  0.52129462    -0.28800
H1159       H  0.27499248  0.25223492  0.49165642     0.15400
H1160       H  0.33279871  0.30059433  0.53487339     0.15900
C1161       C  0.24445388  0.95829444  0.49366289    -0.13700
C1162       C  0.29764960  0.98513359  0.49500467    -0.28800
H1163       H  0.22193275  0.97856866  0.49562464     0.15400
H1164       H  0.31885807  0.96319661  0.49451410     0.15900
C1165       C  0.19257326  0.02868781  0.25407791    -0.13700
C1166       C  0.19649381  0.98682876  0.24695549    -0.28800
H1167       H  0.17809038  0.04795086  0.24291155     0.15400
H1168       H  0.21360670  0.96925358  0.25765269     0.15900
C1169       C  0.35264667  0.29494718  0.31621813    -0.13700
C1170       C  0.38208019  0.32717804  0.33249264    -0.28800
H1171       H  0.33839959  0.31043836  0.30318002     0.15400
H1172       H  0.39671570  0.31230068  0.34560559     0.15900
C1173       C  0.41261553  0.04298360  0.34756374    -0.13700
C1174       C  0.37074311  0.02919283  0.33429905    -0.28800
H1175       H  0.42511946  0.07530050  0.35910558     0.15400
H1176       H  0.35699569  0.99494859  0.32371157     0.15900
C1177       C  0.30817027  0.14631136  0.41602445    -0.13700
C1178       C  0.36018390  0.17311164  0.42116197    -0.28800
H1179       H  0.27846577  0.13054743  0.42909534     0.15400
H1180       H  0.38991097  0.18941509  0.40810793     0.15900
C1181       C  0.68390648  0.58714273  0.57770144    -0.13700
C1182       C  0.63980722  0.54238650  0.58433501    -0.28800
H1183       H  0.70199204  0.62112945  0.58851867     0.15400
H1184       H  0.62240313  0.50844368  0.57348336     0.15900
C1185       C  0.94600243  0.70777108  0.51439408    -0.13700
C1186       C  0.97358365  0.68320442  0.50932514    -0.28800
H1187       H  0.96568060  0.74785760  0.52072174     0.15400
H1188       H  0.95238366  0.64215561  0.50404682     0.15900
C1189       C  0.57890494  0.41613407  0.48669660    -0.13700
C1190       C  0.56358407  0.38042804  0.50329671    -0.28800
H1191       H  0.55832178  0.40591245  0.47102860     0.15400
H1192       H  0.58292788  0.39247399  0.51921177     0.15900
C1193       C  0.68514851  0.72224754  0.48567798    -0.13700
C1194       C  0.70882671  0.77272662  0.49246341    -0.28800
H1195       H  0.64620936  0.70476079  0.47811671     0.15400
H1196       H  0.74706105  0.79017189  0.50060284     0.15900
C1197       C  0.83076276  0.81011958  0.25124162    -0.13700
C1198       C  0.80879955  0.83948829  0.24471099    -0.28800
H1199       H  0.84350045  0.79199123  0.23887470     0.15400
H1200       H  0.79973867  0.86102085  0.25687228     0.15900
C1201       C  0.92290398  0.64646732  0.32326560    -0.13700
C1202       C  0.97495526  0.67387657  0.32818790    -0.28800
H1203       H  0.90119743  0.60342942  0.32405324     0.15400
H1204       H  0.99530042  0.71694809  0.32853117     0.15900
C1205       C  0.64905208  0.65259845  0.33532807    -0.13700
C1206       C  0.62161242  0.60499702  0.34563659    -0.28800
H1207       H  0.62803428  0.67065921  0.32770726     0.15400
H1208       H  0.64193663  0.58776993  0.35445200     0.15900
C1209       C  0.83003807  0.69099740  0.41267048    -0.13700
C1210       C  0.78855374  0.64222969  0.41677740    -0.28800
H1211       H  0.85606934  0.71401764  0.42599633     0.15400
H1212       H  0.75978457  0.62109771  0.40395554     0.15900
C1213       C  0.07438508  0.92848091  0.35425342    -0.13700
C1214       C  0.05033237  0.89840963  0.33664921    -0.28800
H1215       H  0.05199178  0.92389110  0.36927320     0.15400
H1216       H  0.07201093  0.90588515  0.32117882     0.15900
C1217       C  0.97498177  0.20567184  0.25794871    -0.13700
C1218       C  0.02581502  0.23490321  0.25114873    -0.28800
H1219       H  0.94379957  0.18655626  0.24579669     0.15400
H1220       H  0.05759326  0.25038990  0.26315849     0.15900
C1221       C  0.68721957  0.07934138  0.33963868    -0.13700
C1222       C  0.71927584  0.08591256  0.32251670    -0.28800
H1223       H  0.70186199  0.10627027  0.35347909     0.15400
H1224       H  0.70397419  0.05830003  0.30890463     0.15900
C1225       C  0.99221548  0.36845673  0.34843651    -0.13700
C1226       C  0.96607110  0.39525122  0.35111749    -0.28800
H1227       H  0.03535906  0.39001108  0.34891864     0.15400
H1228       H  0.92323457  0.37521579  0.34936019     0.15900
C1229       C  0.85103353  0.96874543  0.33915215    -0.13700
C1230       C  0.85632376  0.94113095  0.35588281    -0.28800
H1231       H  0.83768694  0.95010025  0.32320067     0.15400
H1232       H  0.87306513  0.96035082  0.37144312     0.15900
C1233       C  0.08055192  0.16225542  0.35757802    -0.13700
C1234       C  0.11095132  0.16853466  0.33981190    -0.28800
H1235       H  0.08413903  0.14321782  0.37244511     0.15400
H1236       H  0.10456739  0.18430360  0.32453458     0.15900
C1237       C  0.85069892  0.32600698  0.58293969    -0.13700
C1238       C  0.89927018  0.36251192  0.59007928    -0.28800
H1239       H  0.81583368  0.31864186  0.59237199     0.15400
H1240       H  0.93416573  0.37195839  0.58020920     0.15900
C1241       C  0.69683685  0.03810455  0.51348292    -0.13700
C1242       C  0.74710714  0.06686857  0.52080087    -0.28800
H1243       H  0.67720843  0.05860592  0.50680388     0.15400
H1244       H  0.76690763  0.04812739  0.52886464     0.15900
C1245       C  0.62339497  0.18757716  0.49896711    -0.13700
C1246       C  0.59537766  0.18603061  0.48115340    -0.28800
H1247       H  0.60459400  0.17970627  0.51514537     0.15400
H1248       H  0.61507438  0.19965282  0.46524367     0.15900
C1249       C  0.83504888  0.44024159  0.48953571    -0.13700
C1250       C  0.80919370  0.45264310  0.50475142    -0.28800
H1251       H  0.85277974  0.46507295  0.47500673     0.15400
H1252       H  0.79404467  0.42831847  0.51960944     0.15900
C1253       C  0.02181271  0.31357893  0.50391142    -0.13700
C1254       C  0.05576464  0.32748226  0.48670249    -0.28800
H1255       H  0.03615187  0.31347387  0.52045039     0.15400
H1256       H  0.04200017  0.32399719  0.46984348     0.15900
C1257       C  0.85705015  0.22984590  0.42226154    -0.13700
C1258       C  0.85973247  0.18575377  0.41829589    -0.28800
H1259       H  0.86831517  0.26012726  0.40950206     0.15400
H1260       H  0.85324397  0.15774765  0.43155647     0.15900
loop_ 
_geom_bond_atom_site_label_1 
_geom_bond_atom_site_label_2 
_geom_bond_distance 
_geom_bond_site_symmetry_2 
_ccdc_geom_bond_type 
Zn1           O5   1.921       .  S
Zn1           O6   2.041       .  S
Zn1          O10   1.947       .  S
Zn1          O17   1.999       .  S
Zn2           O5   1.907       .  S
Zn2           O7   1.995       .  S
Zn2           O9   2.005       .  S
Zn2          O13   1.967       .  S
Zn3           O5   1.950       .  S
Zn3           O8   2.078       .  S
Zn3          O11   2.073       .  S
Zn3          O14   2.005       .  S
Zn4           O5   1.953       .  S
Zn4          O12   2.047       .  S
Zn4          O15   2.074       .  S
Zn4          O16   2.025       .  S
O6           C18   1.275       .  A
O7           C19   1.268       .  A
O8           C20   1.281       .  A
O9           C18   1.271       .  A
O10          C20   1.269       .  A
O11          C19   1.278       .  A
O12          C21   1.280       .  A
O13          C22   1.272       .  A
O14          C21   1.275       .  A
O15          C22   1.281       .  A
O16          C23   1.273       .  A
O17          C23   1.270       .  A
C18        C1245   1.472       .  S
C19        C1237   1.479       .  S
C20        C1242   1.480       .  S
C21        C1253   1.469   1_655  S
C22        C1249   1.482       .  S
C23        C1257   1.466       .  S
Zn24         O28   1.921       .  S
Zn24         O29   1.980       .  S
Zn24         O33   2.007       .  S
Zn24         O40   2.025       .  S
Zn25         O28   1.936       .  S
Zn25         O30   1.969       .  S
Zn25         O32   2.037       .  S
Zn25         O36   2.040       .  S
Zn26         O28   1.961       .  S
Zn26         O31   2.033       .  S
Zn26         O34   2.050       .  S
Zn26         O37   2.024       .  S
Zn27         O28   1.919       .  S
Zn27         O35   1.996   1_655  S
Zn27         O38   2.010       .  S
Zn27         O39   2.030       .  S
O29          C41   1.269       .  A
O30          C42   1.268       .  A
O31          C43   1.277       .  A
O32          C41   1.278       .  A
O33          C43   1.275       .  A
O34          C42   1.277       .  A
O35          C44   1.274       .  A
O36          C45   1.280       .  A
O37          C44   1.274   1_655  A
O38          C45   1.275       .  A
O39          C46   1.274       .  A
O40          C46   1.274       .  A
C41        C1222   1.469       .  S
C42        C1258   1.474       .  S
C43        C1229   1.473   1_545  S
C44        C1233   1.472       .  S
C45        C1225   1.476       .  S
C46        C1217   1.478       .  S
Zn47         O51   1.961       .  S
Zn47         O52   2.044       .  S
Zn47         O56   2.029       .  S
Zn47         O63   2.008       .  S
Zn48         O51   1.948       .  S
Zn48         O53   1.999       .  S
Zn48         O55   1.980       .  S
Zn48         O59   2.014       .  S
Zn49         O51   1.927       .  S
Zn49         O54   2.006       .  S
Zn49         O57   2.014       .  S
Zn49         O60   2.031       .  S
Zn50         O51   1.931       .  S
Zn50         O58   2.067       .  S
Zn50         O61   2.003       .  S
Zn50         O62   2.004       .  S
O52          C64   1.275       .  A
O53          C65   1.273       .  A
O54          C66   1.274       .  A
O55          C64   1.268       .  A
O56          C66   1.274       .  A
O57          C65   1.277       .  A
O58          C67   1.280       .  A
O59          C68   1.272       .  A
O60          C67   1.274       .  A
O61          C68   1.273       .  A
O62          C69   1.274       .  A
O63          C69   1.274       .  A
C64        C1209   1.476       .  S
C65        C1205   1.464       .  S
C66        C1230   1.477       .  S
C67        C1197   1.489       .  S
C68        C1201   1.471       .  S
C69        C1214   1.467   1_655  S
Zn70         O74   1.900       .  S
Zn70         O75   2.016       .  S
Zn70         O79   2.016       .  S
Zn70         O86   1.967       .  S
Zn71         O74   1.954       .  S
Zn71         O76   2.081       .  S
Zn71         O78   2.070       .  S
Zn71         O82   2.044       .  S
Zn72         O74   1.912       .  S
Zn72         O77   2.026       .  S
Zn72         O80   1.936       .  S
Zn72         O83   2.013       .  S
Zn73         O74   1.930       .  S
Zn73         O81   2.009       .  S
Zn73         O84   1.997       .  S
Zn73         O85   2.043       .  S
O75          C87   1.274       .  A
O76          C88   1.281       .  A
O77          C89   1.276       .  A
O78          C87   1.279       .  A
O79          C89   1.277       .  A
O80          C88   1.267       .  A
O81          C90   1.271       .  A
O82          C91   1.281       .  A
O83          C90   1.271       .  A
O84          C91   1.276       .  A
O85          C92   1.275       .  A
O86          C92   1.270       .  A
C87        C1181   1.490       .  S
C88        C1185   1.479       .  S
C89        C1250   1.472       .  S
C90        C1210   1.466       .  S
C91        C1193   1.471       .  S
C92        C1189   1.476       .  S
Zn93         O97   1.952       .  S
Zn93         O98   2.014       .  S
Zn93        O102   2.029       .  S
Zn93        O109   2.036       .  S
Zn94         O97   1.956       .  S
Zn94         O99   2.012       .  S
Zn94        O101   2.032       .  S
Zn94        O105   2.008       .  S
Zn95         O97   1.945       .  S
Zn95        O100   2.004       .  S
Zn95        O103   2.010       .  S
Zn95        O106   2.064       .  S
Zn96         O97   1.926       .  S
Zn96        O104   2.017       .  S
Zn96        O107   1.995   1_545  S
Zn96        O108   1.978       .  S
O98         C110   1.271       .  A
O99         C111   1.274       .  A
O100        C112   1.273       .  A
O101        C110   1.274       .  A
O102        C112   1.278       .  A
O103        C111   1.274       .  A
O104        C113   1.271       .  A
O105        C114   1.271   1_545  A
O106        C113   1.278       .  A
O107        C114   1.273       .  A
O108        C115   1.272       .  A
O109        C115   1.278       .  A
C110       C1177   1.480       .  S
C111       C1234   1.470       .  S
C112       C1169   1.474       .  S
C113       C1165   1.489       .  S
C114       C1213   1.467       .  S
C115       C1174   1.461       .  S
Zn116       O120   1.951       .  S
Zn116       O121   2.052       .  S
Zn116       O125   2.015       .  S
Zn116       O132   2.057       .  S
Zn117       O120   1.933       .  S
Zn117       O122   2.023       .  S
Zn117       O124   2.000       .  S
Zn117       O128   2.053       .  S
Zn118       O120   1.961       .  S
Zn118       O123   2.035       .  S
Zn118       O126   2.020       .  S
Zn118       O129   2.030       .  S
Zn119       O120   1.926       .  S
Zn119       O127   1.995       .  S
Zn119       O130   2.044       .  S
Zn119       O131   2.005       .  S
O121        C133   1.282       .  A
O122        C134   1.276       .  A
O123        C135   1.274       .  A
O124        C133   1.276       .  A
O125        C135   1.272       .  A
O126        C134   1.273       .  A
O127        C136   1.273       .  A
O128        C137   1.275       .  A
O129        C136   1.276       .  A
O130        C137   1.276       .  A
O131        C138   1.273       .  A
O132        C138   1.280       .  A
C133       C1162   1.473   1_545  S
C134       C1246   1.475       .  S
C135       C1178   1.481       .  S
C136       C1190   1.466       .  S
C137       C1153   1.491       .  S
C138       C1158   1.481       .  S
Zn139       O143   1.950       .  S
Zn139       O144   2.060       .  S
Zn139       O148   2.013       .  S
Zn139       O155   2.015       .  S
Zn140       O143   1.902   1_556  S
Zn140       O145   1.978       .  S
Zn140       O147   1.969       .  S
Zn140       O151   1.996       .  S
Zn141       O143   1.950       .  S
Zn141       O146   2.020       .  S
Zn141       O149   2.054       .  S
Zn141       O152   1.949       .  S
Zn142       O143   1.968   1_556  S
Zn142       O150   2.083       .  S
Zn142       O153   2.093       .  S
Zn142       O154   2.031       .  S
O144        C156   1.277       .  A
O145        C157   1.270   1_556  A
O146        C158   1.272       .  A
O147        C156   1.271   1_556  A
O148        C158   1.271       .  A
O149        C157   1.276       .  A
O150        C159   1.282       .  A
O151        C160   1.268       .  A
O152        C159   1.268   1_554  A
O153        C160   1.280       .  A
O154        C161   1.277   1_556  A
O155        C161   1.279       .  A
C156       C1137   1.482       .  S
C157       C1142   1.469       .  S
C158       C1149   1.467       .  S
C159       C1133   1.474       .  S
C160       C1129   1.485       .  S
C161       C1145   1.476   1_455  S
Zn162       O166   1.951       .  S
Zn162       O167   1.982       .  S
Zn162       O171   2.034       .  S
Zn162       O178   2.036       .  S
Zn163       O166   1.966       .  S
Zn163       O168   2.040       .  S
Zn163       O170   2.059       .  S
Zn163       O174   2.063   1_455  S
Zn164       O166   1.918       .  S
Zn164       O169   1.989       .  S
Zn164       O172   2.008       .  S
Zn164       O175   2.035       .  S
Zn165       O166   1.921       .  S
Zn165       O173   2.021       .  S
Zn165       O176   1.996   1_455  S
Zn165       O177   2.011   1_455  S
O167        C179   1.270       .  A
O168        C180   1.276       .  A
O169        C181   1.273       .  A
O170        C179   1.279       .  A
O171        C181   1.274       .  A
O172        C180   1.274       .  A
O173        C182   1.274       .  A
O174        C183   1.280       .  A
O175        C182   1.275       .  A
O176        C183   1.271       .  A
O177        C184   1.275   1_655  A
O178        C184   1.278       .  A
C179       C1150   1.480       .  S
C180       C1117   1.472       .  S
C181       C1114   1.479       .  S
C182       C1218   1.480       .  S
C183       C1121   1.481       .  S
C184       C1125   1.474   1_455  S
Zn185       O189   1.938       .  S
Zn185       O190   2.005       .  S
Zn185       O194   1.955       .  S
Zn185       O201   1.995       .  S
Zn186       O189   1.908   1_556  S
Zn186       O191   2.021       .  S
Zn186       O193   2.015       .  S
Zn186       O197   1.961       .  S
Zn187       O189   1.963   1_556  S
Zn187       O192   2.055       .  S
Zn187       O195   2.059       .  S
Zn187       O198   2.006       .  S
Zn188       O189   1.956       .  S
Zn188       O196   2.001       .  S
Zn188       O199   2.067       .  S
Zn188       O200   1.997       .  S
O190        C202   1.270       .  A
O191        C203   1.273       .  A
O192        C204   1.277       .  A
O193        C202   1.276   1_556  A
O194        C204   1.270   1_554  A
O195        C203   1.277       .  A
O196        C205   1.275       .  A
O197        C206   1.270   1_556  A
O198        C205   1.273   1_556  A
O199        C206   1.277       .  A
O200        C207   1.269       .  A
O201        C207   1.268       .  A
C202       C1101   1.467       .  S
C203       C1093   1.488       .  S
C204       C1097   1.478       .  S
C205       C1106   1.458       .  S
C206       C1141   1.485       .  S
C207       C1110   1.458       .  S
Zn208       O212   1.941       .  S
Zn208       O213   2.048       .  S
Zn208       O217   2.080       .  S
Zn208       O224   2.020       .  S
Zn209       O212   1.961       .  S
Zn209       O214   2.016       .  S
Zn209       O216   2.021       .  S
Zn209       O220   2.024       .  S
Zn210       O212   1.930       .  S
Zn210       O215   2.013       .  S
Zn210       O218   2.010       .  S
Zn210       O221   2.031       .  S
Zn211       O212   1.958       .  S
Zn211       O219   2.019       .  S
Zn211       O222   1.979       .  S
Zn211       O223   2.015       .  S
O213        C225   1.280       .  A
O214        C226   1.271       .  A
O215        C227   1.273       .  A
O216        C225   1.274       .  A
O217        C227   1.282       .  A
O218        C226   1.273       .  A
O219        C228   1.274       .  A
O220        C229   1.274       .  A
O221        C228   1.278       .  A
O222        C229   1.269       .  A
O223        C230   1.272       .  A
O224        C230   1.276       .  A
C225       C1122   1.482   1_565  S
C226       C1085   1.473       .  S
C227       C1198   1.490       .  S
C228       C1089   1.474       .  S
C229       C1109   1.466       .  S
C230       C1081   1.476       .  S
Zn231       O235   1.938       .  S
Zn231       O236   2.042       .  S
Zn231       O240   1.950       .  S
Zn231       O247   2.015       .  S
Zn232       O235   1.895   1_556  S
Zn232       O237   1.999       .  S
Zn232       O239   1.992       .  S
Zn232       O243   1.927       .  S
Zn233       O235   1.947   1_556  S
Zn233       O238   2.057       .  S
Zn233       O241   2.068       .  S
Zn233       O244   2.025       .  S
Zn234       O235   1.948       .  S
Zn234       O242   2.019       .  S
Zn234       O245   2.087       .  S
Zn234       O246   2.023       .  S
O236        C248   1.276       .  A
O237        C249   1.269       .  A
O238        C250   1.279       .  A
O239        C248   1.272   1_556  A
O240        C250   1.269   1_554  A
O241        C249   1.277       .  A
O242        C251   1.278       .  A
O243        C252   1.266   1_556  A
O244        C251   1.277   1_556  A
O245        C252   1.282       .  A
O246        C253   1.274       .  A
O247        C253   1.272       .  A
C248       C1138   1.470   1_554  S
C249       C1065   1.486       .  S
C250       C1069   1.466       .  S
C251       C1073   1.468   1_565  S
C252       C1102   1.482       .  S
C253       C1077   1.478       .  S
Zn254       O258   1.911       .  S
Zn254       O259   2.015       .  S
Zn254       O263   2.023       .  S
Zn254       O270   1.943       .  S
Zn255       O258   1.927       .  S
Zn255       O260   2.062   1_565  S
Zn255       O262   2.027       .  S
Zn255       O266   2.003   1_565  S
Zn256       O258   1.906       .  S
Zn256       O261   2.024       .  S
Zn256       O264   1.980   1_565  S
Zn256       O267   2.021       .  S
Zn257       O258   1.948       .  S
Zn257       O265   2.065       .  S
Zn257       O268   2.056       .  S
Zn257       O269   2.087       .  S
O259        C271   1.273       .  A
O260        C272   1.279       .  A
O261        C273   1.277       .  A
O262        C271   1.273       .  A
O263        C273   1.277       .  A
O264        C272   1.272       .  A
O265        C274   1.280       .  A
O266        C275   1.277   1_545  A
O267        C274   1.274       .  A
O268        C275   1.282       .  A
O269        C276   1.281       .  A
O270        C276   1.267       .  A
C271       C1078   1.478       .  S
C272       C1118   1.480       .  S
C273       C1086   1.473   1_455  S
C274       C1166   1.488       .  S
C275       C1061   1.474   1_565  S
C276       C1057   1.482       .  S
Zn277       O281   1.920       .  S
Zn277       O282   2.008       .  S
Zn277       O286   1.954       .  S
Zn277       O293   2.040       .  S
Zn278       O281   1.950       .  S
Zn278       O283   2.029       .  S
Zn278       O285   2.018       .  S
Zn278       O289   2.076       .  S
Zn279       O281   1.957       .  S
Zn279       O284   2.056   1_565  S
Zn279       O287   2.014   1_565  S
Zn279       O290   2.057       .  S
Zn280       O281   1.907       .  S
Zn280       O288   2.009       .  S
Zn280       O291   1.961       .  S
Zn280       O292   2.019       .  S
O282        C294   1.270       .  A
O283        C295   1.281   1_565  A
O284        C296   1.277       .  A
O285        C294   1.271       .  A
O286        C296   1.270   1_565  A
O287        C295   1.275       .  A
O288        C297   1.272       .  A
O289        C298   1.280       .  A
O290        C297   1.277       .  A
O291        C298   1.270       .  A
O292        C299   1.275       .  A
O293        C299   1.276       .  A
C294       C1053   1.467       .  S
C295       C1221   1.474       .  S
C296       C1173   1.479       .  S
C297       C1041   1.483       .  S
C298       C1050   1.484       .  S
C299       C1046   1.475       .  S
Zn300       O304   1.917       .  S
Zn300       O305   1.997       .  S
Zn300       O309   2.000       .  S
Zn300       O316   2.040       .  S
Zn301       O304   1.964       .  S
Zn301       O306   2.063       .  S
Zn301       O308   2.045       .  S
Zn301       O312   2.055       .  S
Zn302       O304   1.944       .  S
Zn302       O307   2.038   1_545  S
Zn302       O310   1.975       .  S
Zn302       O313   2.038   1_545  S
Zn303       O304   1.919       .  S
Zn303       O311   2.002       .  S
Zn303       O314   1.984       .  S
Zn303       O315   2.008       .  S
O305        C317   1.273       .  A
O306        C318   1.280       .  A
O307        C319   1.275   1_565  A
O308        C317   1.276       .  A
O309        C319   1.274       .  A
O310        C318   1.270       .  A
O311        C320   1.274       .  A
O312        C321   1.279       .  A
O313        C320   1.278   1_565  A
O314        C321   1.269       .  A
O315        C322   1.272       .  A
O316        C322   1.276       .  A
C317       C1038   1.470       .  S
C318       C1054   1.478       .  S
C319       C1062   1.482   1_545  S
C320       C1082   1.473   1_545  S
C321       C1033   1.476       .  S
C322       C1030   1.479       .  S
Zn323       O327   1.925       .  S
Zn323       O328   2.025       .  S
Zn323       O332   2.031       .  S
Zn323       O339   2.009       .  S
Zn324       O327   1.915       .  S
Zn324       O329   2.024       .  S
Zn324       O331   2.059       .  S
Zn324       O335   2.008       .  S
Zn325       O327   1.937       .  S
Zn325       O330   2.002   1_455  S
Zn325       O333   2.014   1_455  S
Zn325       O336   1.964       .  S
Zn326       O327   1.963       .  S
Zn326       O334   2.036       .  S
Zn326       O337   2.040       .  S
Zn326       O338   2.037       .  S
O328        C340   1.275       .  A
O329        C341   1.276   1_455  A
O330        C342   1.274   1_655  A
O331        C340   1.280       .  A
O332        C342   1.277       .  A
O333        C341   1.272       .  A
O334        C343   1.275       .  A
O335        C344   1.276       .  A
O336        C343   1.268       .  A
O337        C344   1.276       .  A
O338        C345   1.275       .  A
O339        C345   1.274       .  A
C340       C1017   1.485       .  S
C341       C1226   1.477       .  S
C342       C1202   1.473   1_455  S
C343       C1021   1.471       .  S
C344       C1025   1.471       .  S
C345       C1045   1.477       .  S
Zn346       O350   1.942       .  S
Zn346       O351   2.075       .  S
Zn346       O355   2.044       .  S
Zn346       O362   2.020       .  S
Zn347       O350   1.918       .  S
Zn347       O352   2.016       .  S
Zn347       O354   1.993       .  S
Zn347       O358   2.018       .  S
Zn348       O350   1.953       .  S
Zn348       O353   2.002       .  S
Zn348       O356   2.020       .  S
Zn348       O359   2.013       .  S
Zn349       O350   1.953       .  S
Zn349       O357   1.989       .  S
Zn349       O360   2.024   1_655  S
Zn349       O361   2.018   1_655  S
O351        C363   1.281       .  A
O352        C364   1.273       .  A
O353        C365   1.271       .  A
O354        C363   1.272       .  A
O355        C365   1.280       .  A
O356        C364   1.272       .  A
O357        C366   1.270       .  A
O358        C367   1.277       .  A
O359        C366   1.274       .  A
O360        C367   1.275   1_455  A
O361        C368   1.273   1_455  A
O362        C368   1.276       .  A
C363       C1009   1.487       .  S
C364       C1013   1.475       .  S
C365       C1034   1.476       .  S
C366       C1022   1.467       .  S
C367       C1058   1.471   1_655  S
C368       C1126   1.476   1_655  S
Zn369       O373   1.938       .  S
Zn369       O374   2.006       .  S
Zn369       O378   2.076       .  S
Zn369       O385   2.026       .  S
Zn370       O373   1.934       .  S
Zn370       O375   2.031       .  S
Zn370       O377   2.008       .  S
Zn370       O381   1.938       .  S
Zn371       O373   1.895       .  S
Zn371       O376   1.957       .  S
Zn371       O379   2.008       .  S
Zn371       O382   1.995       .  S
Zn372       O373   1.956       .  S
Zn372       O380   2.078       .  S
Zn372       O383   2.072       .  S
Zn372       O384   2.022       .  S
O374        C386   1.272       .  A
O375        C387   1.274       .  A
O376        C388   1.270       .  A
O377        C386   1.271       .  A
O378        C388   1.281       .  A
O379        C387   1.274       .  A
O380        C389   1.280       .  A
O381        C390   1.267       .  A
O382        C389   1.271       .  A
O383        C390   1.281       .  A
O384        C391   1.276       .  A
O385        C391   1.280       .  A
C386       C1005   1.472       .  S
C387       C1049   1.472       .  S
C388       C1026   1.481       .  S
C389       C1002   1.493       .  S
C390       C1206   1.477       .  S
C391       C1170   1.476       .  S
Zn392       O396   1.942       .  S
Zn392       O397   2.052       .  S
Zn392       O401   2.070       .  S
Zn392       O408   2.101       .  S
Zn393       O396   1.918       .  S
Zn393       O398   2.054       .  S
Zn393       O400   1.994       .  S
Zn393       O404   2.011       .  S
Zn394       O396   1.893       .  S
Zn394       O399   2.024       .  S
Zn394       O402   1.978       .  S
Zn394       O405   2.032       .  S
Zn395       O396   1.899       .  S
Zn395       O403   2.021       .  S
Zn395       O406   2.007       .  S
Zn395       O407   1.938       .  S
O397        C409   1.282       .  A
O398        C410   1.277       .  A
O399        C411   1.277       .  A
O400        C409   1.277       .  A
O401        C411   1.280       .  A
O402        C410   1.272       .  A
O403        C412   1.278       .  A
O404        C413   1.271       .  A
O405        C412   1.279       .  A
O406        C413   1.273       .  A
O407        C414   1.266       .  A
O408        C414   1.284       .  A
C409       C1113   1.470       .  S
C410       C1037   1.480       .  S
C411        C997   1.494       .  S
C412       C1014   1.477       .  S
C413       C1006   1.471       .  S
C414       C1090   1.486       .  S
Zn415       O419   1.913       .  S
Zn415       O420   1.999       .  S
Zn415       O424   1.970       .  S
Zn415       O431   2.007       .  S
Zn416       O419   1.957       .  S
Zn416       O421   2.034       .  S
Zn416       O423   2.077       .  S
Zn416       O427   2.085       .  S
Zn417       O419   1.948       .  S
Zn417       O422   2.070       .  S
Zn417       O425   2.047       .  S
Zn417       O428   2.024       .  S
Zn418       O419   1.934       .  S
Zn418       O426   2.016       .  S
Zn418       O429   1.952       .  S
Zn418       O430   2.043       .  S
O420        C432   1.269       .  A
O421        C433   1.278       .  A
O422        C434   1.280       .  A
O423        C432   1.278       .  A
O424        C434   1.272       .  A
O425        C433   1.282       .  A
O426        C435   1.271       .  A
O427        C436   1.282       .  A
O428        C435   1.272       .  A
O429        C436   1.269       .  A
O430        C437   1.276       .  A
O431        C437   1.272       .  A
C432       C1001   1.479       .  S
C433       C1157   1.485       .  S
C434        C990   1.479       .  S
C435        C993   1.469       .  S
C436       C1254   1.479       .  S
C437        C986   1.474       .  S
Zn438       O442   1.937       .  S
Zn438       O443   2.012       .  S
Zn438       O447   1.982       .  S
Zn438       O454   2.036       .  S
Zn439       O442   1.958       .  S
Zn439       O444   2.051       .  S
Zn439       O446   2.024       .  S
Zn439       O450   2.027       .  S
Zn440       O442   1.945       .  S
Zn440       O445   2.036       .  S
Zn440       O448   1.985       .  S
Zn440       O451   2.039       .  S
Zn441       O442   1.924       .  S
Zn441       O449   2.002       .  S
Zn441       O452   2.005       .  S
Zn441       O453   2.021       .  S
O443        C455   1.275       .  A
O444        C456   1.276       .  A
O445        C457   1.278       .  A
O446        C455   1.276       .  A
O447        C457   1.269       .  A
O448        C456   1.269       .  A
O449        C458   1.276       .  A
O450        C459   1.275       .  A
O451        C458   1.278       .  A
O452        C459   1.274       .  A
O453        C460   1.273       .  A
O454        C460   1.275       .  A
C455        C977   1.473   1_455  S
C456        C994   1.479       .  S
C457        C970   1.470       .  S
C458        C982   1.470       .  S
C459        C973   1.473       .  S
C460        C965   1.481       .  S
Zn461       O465   1.960       .  S
Zn461       O466   2.016       .  S
Zn461       O470   1.984       .  S
Zn461       O477   2.011       .  S
Zn462       O465   1.938       .  S
Zn462       O467   2.025       .  S
Zn462       O469   2.016       .  S
Zn462       O473   2.065       .  S
Zn463       O465   1.962       .  S
Zn463       O468   2.023       .  S
Zn463       O471   2.016       .  S
Zn463       O474   2.025       .  S
Zn464       O465   1.931       .  S
Zn464       O472   2.016       .  S
Zn464       O475   2.016       .  S
Zn464       O476   2.015       .  S
O466        C478   1.271       .  A
O467        C479   1.276       .  A
O468        C480   1.274       .  A
O469        C478   1.276       .  A
O470        C480   1.269       .  A
O471        C479   1.275       .  A
O472        C481   1.274       .  A
O473        C482   1.280       .  A
O474        C481   1.272       .  A
O475        C482   1.273       .  A
O476        C483   1.277       .  A
O477        C483   1.273       .  A
C478       C1161   1.477       .  S
C479        C957   1.475       .  S
C480        C961   1.469       .  S
C481        C985   1.475       .  S
C482       C1018   1.487       .  S
C483       C1186   1.467   1_455  S
Zn484       O488   1.957       .  S
Zn484       O489   2.025       .  S
Zn484       O493   2.011       .  S
Zn484       O500   2.009       .  S
Zn485       O488   1.950       .  S
Zn485       O490   2.006       .  S
Zn485       O492   1.975       .  S
Zn485       O496   2.007       .  S
Zn486       O488   1.934       .  S
Zn486       O491   2.024       .  S
Zn486       O494   2.015       .  S
Zn486       O497   2.066       .  S
Zn487       O488   1.928       .  S
Zn487       O495   2.024       .  S
Zn487       O498   2.009       .  S
Zn487       O499   2.011   1_455  S
O489        C501   1.273       .  A
O490        C502   1.271       .  A
O491        C503   1.275       .  A
O492        C501   1.268       .  A
O493        C503   1.274       .  A
O494        C502   1.277       .  A
O495        C504   1.273       .  A
O496        C505   1.274       .  A
O497        C504   1.280       .  A
O498        C505   1.275       .  A
O499        C506   1.274       .  A
O500        C506   1.271   1_455  A
C501        C962   1.470       .  S
C502        C945   1.477       .  S
C503        C974   1.474   1_565  S
C504        C941   1.489       .  S
C505        C949   1.464       .  S
C506        C954   1.471       .  S
Zn507       O511   1.930       .  S
Zn507       O512   2.010       .  S
Zn507       O516   2.006       .  S
Zn507       O523   2.018       .  S
Zn508       O511   1.949       .  S
Zn508       O513   1.976       .  S
Zn508       O515   2.024       .  S
Zn508       O519   2.014       .  S
Zn509       O511   1.966       .  S
Zn509       O514   2.028       .  S
Zn509       O517   2.039       .  S
Zn509       O520   2.043       .  S
Zn510       O511   1.927       .  S
Zn510       O518   2.005       .  S
Zn510       O521   2.005       .  S
Zn510       O522   2.045       .  S
O512        C524   1.276       .  A
O513        C525   1.269       .  A
O514        C526   1.275       .  A
O515        C524   1.275       .  A
O516        C526   1.274       .  A
O517        C525   1.276       .  A
O518        C527   1.273       .  A
O519        C528   1.273       .  A
O520        C527   1.276       .  A
O521        C528   1.275       .  A
O522        C529   1.277       .  A
O523        C529   1.272       .  A
C524       C1241   1.469   1_565  S
C525        C937   1.473       .  S
C526        C958   1.474       .  S
C527        C989   1.472       .  S
C528       C1194   1.476       .  S
C529       C1042   1.484       .  S
Zn530       O534   1.922       .  S
Zn530       O535   2.011   1_565  S
Zn530       O539   2.013   1_565  S
Zn530       O546   2.032   1_565  S
Zn531       O534   1.951       .  S
Zn531       O536   1.985       .  S
Zn531       O538   2.035       .  S
Zn531       O542   2.022       .  S
Zn532       O534   1.953       .  S
Zn532       O537   2.014   1_565  S
Zn532       O540   2.028       .  S
Zn532       O543   2.019       .  S
Zn533       O534   1.932       .  S
Zn533       O541   2.005       .  S
Zn533       O544   1.984       .  S
Zn533       O545   2.032       .  S
O535        C547   1.278   1_545  A
O536        C548   1.268       .  A
O537        C549   1.272       .  A
O538        C547   1.278       .  A
O539        C549   1.275       .  A
O540        C548   1.274       .  A
O541        C550   1.274       .  A
O542        C551   1.276       .  A
O543        C550   1.275       .  A
O544        C551   1.269       .  A
O545        C552   1.274       .  A
O546        C552   1.274   1_545  A
C547        C934   1.470   1_565  S
C548        C938   1.471       .  S
C549        C978   1.473       .  S
C550        C953   1.471       .  S
C551        C929   1.467       .  S
C552        C925   1.482       .  S
Zn553       O557   1.939   1_556  S
Zn553       O558   2.017       .  S
Zn553       O562   1.947   1_556  S
Zn553       O569   2.020       .  S
Zn554       O557   1.944   1_556  S
Zn554       O559   2.004       .  S
Zn554       O561   2.007       .  S
Zn554       O565   2.073       .  S
Zn555       O557   1.947       .  S
Zn555       O560   2.046       .  S
Zn555       O563   2.012       .  S
Zn555       O566   2.049       .  S
Zn556       O557   1.902       .  S
Zn556       O564   2.010       .  S
Zn556       O567   1.945       .  S
Zn556       O568   1.985       .  S
O558        C570   1.271       .  A
O559        C571   1.277   1_556  A
O560        C572   1.276       .  A
O561        C570   1.272       .  A
O562        C572   1.268       .  A
O563        C571   1.275       .  A
O564        C573   1.270       .  A
O565        C574   1.279       .  A
O566        C573   1.276       .  A
O567        C574   1.269   1_554  A
O568        C575   1.272       .  A
O569        C575   1.274   1_556  A
C570        C921   1.476       .  S
C571       C1070   1.460   1_655  S
C572       C1105   1.464       .  S
C573       C1010   1.483       .  S
C574        C917   1.478       .  S
C575        C913   1.462       .  S
Zn576       O580   1.925       .  S
Zn576       O581   2.046   1_655  S
Zn576       O585   1.994   1_655  S
Zn576       O592   2.014       .  S
Zn577       O580   1.903       .  S
Zn577       O582   2.014       .  S
Zn577       O584   1.968   1_655  S
Zn577       O588   2.021       .  S
Zn578       O580   1.945       .  S
Zn578       O583   2.053       .  S
Zn578       O586   2.071       .  S
Zn578       O589   2.071       .  S
Zn579       O580   1.911       .  S
Zn579       O587   1.954       .  S
Zn579       O590   2.034       .  S
Zn579       O591   2.018       .  S
O581        C593   1.276       .  A
O582        C594   1.273       .  A
O583        C595   1.280       .  A
O584        C593   1.271       .  A
O585        C595   1.275   1_455  A
O586        C594   1.280       .  A
O587        C596   1.269       .  A
O588        C597   1.276       .  A
O589        C596   1.280       .  A
O590        C597   1.278       .  A
O591        C598   1.273       .  A
O592        C598   1.272       .  A
C593        C905   1.474       .  S
C594        C942   1.488       .  S
C595        C910   1.466   1_655  S
C596        C897   1.479       .  S
C597        C901   1.474       .  S
C598        C922   1.474       .  S
Zn599       O603   1.942   1_556  S
Zn599       O604   2.029   1_556  S
Zn599       O608   2.027   1_556  S
Zn599       O615   1.973       .  S
Zn600       O603   1.919       .  S
Zn600       O605   2.013       .  S
Zn600       O607   1.985       .  S
Zn600       O611   1.999       .  S
Zn601       O603   1.921       .  S
Zn601       O606   1.993       .  S
Zn601       O609   2.037       .  S
Zn601       O612   1.993       .  S
Zn602       O603   1.959   1_556  S
Zn602       O610   2.038       .  S
Zn602       O613   2.037       .  S
Zn602       O614   2.038       .  S
O604        C616   1.278       .  A
O605        C617   1.271       .  A
O606        C618   1.270       .  A
O607        C616   1.273       .  A
O608        C618   1.276       .  A
O609        C617   1.275       .  A
O610        C619   1.277   1_556  A
O611        C620   1.273   1_554  A
O612        C619   1.274       .  A
O613        C620   1.275       .  A
O614        C621   1.276       .  A
O615        C621   1.268       .  A
C616       C1098   1.461   1_545  S
C617       C1029   1.479       .  S
C618       C1146   1.471       .  S
C619        C918   1.467       .  S
C620        C894   1.477       .  S
C621        C889   1.472       .  S
Zn622       O626   1.961       .  S
Zn622       O627   2.026       .  S
Zn622       O631   2.034       .  S
Zn622       O638   2.031       .  S
Zn623       O626   1.933       .  S
Zn623       O628   2.038       .  S
Zn623       O630   2.019   1_545  S
Zn623       O634   2.026       .  S
Zn624       O626   1.953       .  S
Zn624       O629   1.979       .  S
Zn624       O632   2.027       .  S
Zn624       O635   2.027       .  S
Zn625       O626   1.934       .  S
Zn625       O633   1.998       .  S
Zn625       O636   2.047       .  S
Zn625       O637   2.023       .  S
O627        C639   1.274   1_545  A
O628        C640   1.278       .  A
O629        C641   1.269       .  A
O630        C639   1.275       .  A
O631        C641   1.275       .  A
O632        C640   1.277       .  A
O633        C642   1.273       .  A
O634        C643   1.275       .  A
O635        C642   1.274       .  A
O636        C643   1.277       .  A
O637        C644   1.276       .  A
O638        C644   1.276       .  A
C639        C902   1.476       .  S
C640        C885   1.481       .  S
C641        C890   1.472       .  S
C642        C878   1.480       .  S
C643        C926   1.483       .  S
C644        C881   1.478   1_655  S
Zn645       O649   1.922   1_556  S
Zn645       O650   1.992       .  S
Zn645       O654   1.954   1_556  S
Zn645       O661   2.040       .  S
Zn646       O649   1.951   1_556  S
Zn646       O651   2.023       .  S
Zn646       O653   2.006       .  S
Zn646       O657   2.048       .  S
Zn647       O649   1.946       .  S
Zn647       O652   2.080       .  S
Zn647       O655   2.026       .  S
Zn647       O658   2.086       .  S
Zn648       O649   1.899       .  S
Zn648       O656   1.997       .  S
Zn648       O659   1.956       .  S
Zn648       O660   2.000       .  S
O650        C662   1.269       .  A
O651        C663   1.278   1_556  A
O652        C664   1.282       .  A
O653        C662   1.270       .  A
O654        C664   1.269       .  A
O655        C663   1.277       .  A
O656        C665   1.269       .  A
O657        C666   1.277       .  A
O658        C665   1.279       .  A
O659        C666   1.271   1_554  A
O660        C667   1.271       .  A
O661        C667   1.274   1_556  A
C662        C873   1.461       .  S
C663       C1134   1.470       .  S
C664       C1074   1.474       .  S
C665        C998   1.483       .  S
C666        C914   1.475       .  S
C667        C893   1.469       .  S
Zn668       O672   1.954       .  S
Zn668       O673   2.023       .  S
Zn668       O677   2.030       .  S
Zn668       O684   2.027       .  S
Zn669       O672   1.913       .  S
Zn669       O674   2.033       .  S
Zn669       O676   1.995       .  S
Zn669       O680   1.997       .  S
Zn670       O672   1.924       .  S
Zn670       O675   2.018       .  S
Zn670       O678   2.027       .  S
Zn670       O681   2.029       .  S
Zn671       O672   1.938       .  S
Zn671       O679   2.019       .  S
Zn671       O682   2.034       .  S
Zn671       O683   1.977       .  S
O673        C685   1.274       .  A
O674        C686   1.276       .  A
O675        C687   1.275       .  A
O676        C685   1.272       .  A
O677        C687   1.275       .  A
O678        C686   1.275       .  A
O679        C688   1.277       .  A
O680        C689   1.273       .  A
O681        C688   1.278       .  A
O682        C689   1.275       .  A
O683        C690   1.269       .  A
O684        C690   1.274       .  A
C685        C906   1.465   1_545  S
C686        C966   1.480       .  S
C687        C882   1.478       .  S
C688        C869   1.474       .  S
C689        C865   1.478       .  S
C690        C874   1.468       .  S
Zn691       O695   1.930       .  S
Zn691       O696   2.029       .  S
Zn691       O700   1.950       .  S
Zn691       O707   2.013       .  S
Zn692       O695   1.900       .  S
Zn692       O697   1.993       .  S
Zn692       O699   1.981       .  S
Zn692       O703   1.963       .  S
Zn693       O695   1.965       .  S
Zn693       O698   2.083       .  S
Zn693       O701   2.084       .  S
Zn693       O704   2.012       .  S
Zn694       O695   1.955       .  S
Zn694       O702   2.028       .  S
Zn694       O705   2.085       .  S
Zn694       O706   2.015       .  S
O696        C708   1.276       .  A
O697        C709   1.268       .  A
O698        C710   1.281       .  A
O699        C708   1.270       .  A
O700        C710   1.268       .  A
O701        C709   1.280       .  A
O702        C711   1.282       .  A
O703        C712   1.269       .  A
O704        C711   1.275       .  A
O705        C712   1.280       .  A
O706        C713   1.270       .  A
O707        C713   1.271       .  A
C708        C853   1.465       .  S
C709       C1182   1.479       .  S
C710        C981   1.484       .  S
C711        C930   1.471       .  S
C712        C858   1.491       .  S
C713        C861   1.468       .  S
Zn714       O718   1.968       .  S
Zn714       O719   2.040       .  S
Zn714       O723   2.044       .  S
Zn714       O730   2.035       .  S
Zn715       O718   1.922       .  S
Zn715       O720   2.006       .  S
Zn715       O722   1.993       .  S
Zn715       O726   2.053       .  S
Zn716       O718   1.945       .  S
Zn716       O721   1.995       .  S
Zn716       O724   2.022       .  S
Zn716       O727   2.022       .  S
Zn717       O718   1.926       .  S
Zn717       O725   2.011       .  S
Zn717       O728   2.026       .  S
Zn717       O729   2.001       .  S
O719        C731   1.275       .  A
O720        C732   1.275       .  A
O721        C733   1.271       .  A
O722        C731   1.272       .  A
O723        C733   1.277       .  A
O724        C732   1.274       .  A
O725        C734   1.276       .  A
O726        C735   1.277       .  A
O727        C734   1.276       .  A
O728        C735   1.273       .  A
O729        C736   1.274       .  A
O730        C736   1.276       .  A
C731        C845   1.469       .  S
C732        C870   1.473       .  S
C733        C862   1.477       .  S
C734        C898   1.469       .  S
C735       C1094   1.488       .  S
C736        C850   1.476       .  S
Zn737       O741   1.956       .  S
Zn737       O742   2.040       .  S
Zn737       O746   2.036       .  S
Zn737       O753   2.022       .  S
Zn738       O741   1.941       .  S
Zn738       O743   2.023   1_565  S
Zn738       O745   1.983   1_565  S
Zn738       O749   2.021   1_565  S
Zn739       O741   1.919       .  S
Zn739       O744   2.017       .  S
Zn739       O747   2.025       .  S
Zn739       O750   2.007       .  S
Zn740       O741   1.927       .  S
Zn740       O748   2.075       .  S
Zn740       O751   2.029       .  S
Zn740       O752   2.020       .  S
O742        C754   1.277       .  A
O743        C755   1.276       .  A
O744        C756   1.274       .  A
O745        C754   1.270   1_545  A
O746        C756   1.275       .  A
O747        C755   1.278   1_565  A
O748        C757   1.282       .  A
O749        C758   1.274       .  A
O750        C757   1.273       .  A
O751        C758   1.276   1_565  A
O752        C759   1.276       .  A
O753        C759   1.275       .  A
C754        C837   1.473   1_565  S
C755        C866   1.475       .  S
C756        C841   1.477       .  S
C757       C1066   1.488       .  S
C758        C886   1.479       .  S
C759        C849   1.474       .  S
Zn760       O764   1.921       .  S
Zn760       O765   2.002       .  S
Zn760       O769   2.027       .  S
Zn760       O776   1.934       .  S
Zn761       O764   1.943       .  S
Zn761       O766   2.033       .  S
Zn761       O768   2.012       .  S
Zn761       O772   1.984       .  S
Zn762       O764   1.906       .  S
Zn762       O767   2.012       .  S
Zn762       O770   1.975       .  S
Zn762       O773   2.014       .  S
Zn763       O764   1.967       .  S
Zn763       O771   2.089       .  S
Zn763       O774   2.064   1_545  S
Zn763       O775   2.094   1_545  S
O765        C777   1.270       .  A
O766        C778   1.273       .  A
O767        C779   1.276       .  A
O768        C777   1.270       .  A
O769        C779   1.275       .  A
O770        C778   1.271       .  A
O771        C780   1.282       .  A
O772        C781   1.273       .  A
O773        C780   1.274       .  A
O774        C781   1.283   1_565  A
O775        C782   1.282   1_565  A
O776        C782   1.267       .  A
C777        C838   1.465       .  S
C778        C854   1.476       .  S
C779        C833   1.471       .  S
C780       C1154   1.494       .  S
C781        C946   1.471   1_545  S
C782        C933   1.486   1_545  S
Zn783       O787   1.914       .  S
Zn783       O788   2.016       .  S
Zn783       O792   1.948       .  S
Zn783       O799   2.000       .  S
Zn784       O787   1.906       .  S
Zn784       O789   2.026       .  S
Zn784       O791   2.045       .  S
Zn784       O795   1.967       .  S
Zn785       O787   1.949       .  S
Zn785       O790   2.079   1_455  S
Zn785       O793   2.076       .  S
Zn785       O796   2.051   1_455  S
Zn786       O787   1.926       .  S
Zn786       O794   1.998       .  S
Zn786       O797   2.067       .  S
Zn786       O798   2.027       .  S
O788        C800   1.274       .  A
O789        C801   1.276       .  A
O790        C802   1.282   1_655  A
O791        C800   1.278       .  A
O792        C802   1.270       .  A
O793        C801   1.280       .  A
O794        C803   1.276       .  A
O795        C804   1.272       .  A
O796        C803   1.280   1_655  A
O797        C804   1.280       .  A
O798        C805   1.275       .  A
O799        C805   1.269       .  A
C800        C842   1.479       .  S
C801       C1130   1.496       .  S
C802        C909   1.478   1_455  S
C803        C877   1.473   1_455  S
C804        C846   1.482       .  S
C805        C830   1.474       .  S
Zn806       O810   1.927       .  S
Zn806       O811   2.058       .  S
Zn806       O815   1.938       .  S
Zn806       O822   2.025       .  S
Zn807       O810   1.888       .  S
Zn807       O812   2.003       .  S
Zn807       O814   2.000       .  S
Zn807       O818   1.954       .  S
Zn808       O810   1.954       .  S
Zn808       O813   2.069   1_655  S
Zn808       O816   2.066       .  S
Zn808       O819   2.009   1_655  S
Zn809       O810   1.942       .  S
Zn809       O817   2.033       .  S
Zn809       O820   2.079       .  S
Zn809       O821   2.004       .  S
O811        C823   1.279       .  A
O812        C824   1.272       .  A
O813        C825   1.280       .  A
O814        C823   1.275       .  A
O815        C825   1.267   1_655  A
O816        C824   1.278       .  A
O817        C826   1.282   1_655  A
O818        C827   1.269       .  A
O819        C826   1.274       .  A
O820        C827   1.280       .  A
O821        C828   1.271       .  A
O822        C828   1.275       .  A
C823        C857   1.477       .  S
C824       C1238   1.490       .  S
C825        C950   1.477       .  S
C826        C969   1.473       .  S
C827        C834   1.484       .  S
C828        C829   1.473       .  S
C829        C830   1.345   1_655  D
C829        H831   1.087       .  S
C830        H832   1.087       .  S
C833        C834   1.351       .  D
C833        H835   1.087       .  S
C834        H836   1.086       .  S
C837        C838   1.347       .  D
C837        H839   1.087   1_545  S
C838        H840   1.087       .  S
C841        C842   1.349       .  D
C841        H843   1.086       .  S
C842        H844   1.087       .  S
C845        C846   1.349       .  D
C845        H847   1.088       .  S
C846        H848   1.086       .  S
C849        C850   1.348       .  D
C849        H851   1.088       .  S
C850        H852   1.086       .  S
C853        C854   1.344       .  D
C853        H855   1.087       .  S
C854        H856   1.086       .  S
C857        C858   1.352       .  D
C857        H859   1.087       .  S
C858        H860   1.086       .  S
C861        C862   1.347       .  D
C861        H863   1.086       .  S
C862        H864   1.087       .  S
C865        C866   1.349       .  D
C865        H867   1.086       .  S
C866        H868   1.087       .  S
C869        C870   1.347       .  D
C869        H871   1.088       .  S
C870        H872   1.086       .  S
C873        C874   1.344       .  D
C873        H875   1.087       .  S
C874        H876   1.087       .  S
C877        C878   1.346       .  D
C877        H879   1.087       .  S
C878        H880   1.086       .  S
C881        C882   1.347       .  D
C881        H883   1.087       .  S
C882        H884   1.086       .  S
C885        C886   1.349       .  D
C885        H887   1.087   1_545  S
C886        H888   1.086       .  S
C889        C890   1.350       .  D
C889        H891   1.087       .  S
C890        H892   1.087       .  S
C893        C894   1.344   1_554  D
C893        H895   1.088       .  S
C894        H896   1.087       .  S
C897        C898   1.350       .  D
C897        H899   1.086       .  S
C898        H900   1.087       .  S
C901        C902   1.344       .  D
C901        H903   1.088       .  S
C902        H904   1.086       .  S
C905        C906   1.346       .  D
C905        H907   1.086       .  S
C906        H908   1.088       .  S
C909        C910   1.347   1_655  D
C909        H911   1.086       .  S
C910        H912   1.088       .  S
C913        C914   1.345   1_554  D
C913        H915   1.088       .  S
C914        H916   1.086       .  S
C917        C918   1.348   1_556  D
C917        H919   1.086       .  S
C918        H920   1.088       .  S
C921        C922   1.347       .  D
C921        H923   1.087       .  S
C922        H924   1.087       .  S
C925        C926   1.349   1_565  D
C925        H927   1.087       .  S
C926        H928   1.087       .  S
C929        C930   1.342       .  D
C929        H931   1.087       .  S
C930        H932   1.087       .  S
C933        C934   1.353   1_565  D
C933        H935   1.086       .  S
C934        H936   1.088       .  S
C937        C938   1.350       .  D
C937        H939   1.087       .  S
C938        H940   1.087       .  S
C941        C942   1.354   1_455  D
C941        H943   1.087       .  S
C942        H944   1.086       .  S
C945        C946   1.343       .  D
C945        H947   1.087       .  S
C946        H948   1.088       .  S
C949        C950   1.350       .  D
C949        H951   1.088   1_455  S
C950        H952   1.086       .  S
C953        C954   1.343       .  D
C953        H955   1.087       .  S
C954        H956   1.086       .  S
C957        C958   1.347       .  D
C957        H959   1.087       .  S
C958        H960   1.086       .  S
C961        C962   1.348       .  D
C961        H963   1.086       .  S
C962        H964   1.086       .  S
C965        C966   1.348       .  D
C965        H967   1.087       .  S
C966        H968   1.087       .  S
C969        C970   1.341       .  D
C969        H971   1.087       .  S
C970        H972   1.087       .  S
C973        C974   1.347       .  D
C973        H975   1.087       .  S
C974        H976   1.087       .  S
C977        C978   1.344       .  D
C977        H979   1.087       .  S
C978        H980   1.086       .  S
C981        C982   1.351       .  D
C981        H983   1.086       .  S
C982        H984   1.087       .  S
C985        C986   1.343       .  D
C985        H987   1.086       .  S
C986        H988   1.088       .  S
C989        C990   1.347       .  D
C989        H991   1.088       .  S
C990        H992   1.086       .  S
C993        C994   1.348       .  D
C993        H995   1.087       .  S
C994        H996   1.087       .  S
C997        C998   1.351       .  D
C997        H999   1.086       .  S
C998       H1000   1.086       .  S
C1001      C1002   1.352       .  D
C1001      H1003   1.086       .  S
C1002      H1004   1.086       .  S
C1005      C1006   1.346       .  D
C1005      H1007   1.087       .  S
C1006      H1008   1.087       .  S
C1009      C1010   1.354       .  D
C1009      H1011   1.086       .  S
C1010      H1012   1.086       .  S
C1013      C1014   1.347       .  D
C1013      H1015   1.086       .  S
C1014      H1016   1.088       .  S
C1017      C1018   1.354       .  D
C1017      H1019   1.087       .  S
C1018      H1020   1.087       .  S
C1021      C1022   1.349   1_455  D
C1021      H1023   1.086       .  S
C1022      H1024   1.087       .  S
C1025      C1026   1.350       .  D
C1025      H1027   1.088       .  S
C1026      H1028   1.086       .  S
C1029      C1030   1.350       .  D
C1029      H1031   1.087       .  S
C1030      H1032   1.086       .  S
C1033      C1034   1.339       .  D
C1033      H1035   1.088       .  S
C1034      H1036   1.087       .  S
C1037      C1038   1.346       .  D
C1037      H1039   1.086       .  S
C1038      H1040   1.088       .  S
C1041      C1042   1.352       .  D
C1041      H1043   1.086       .  S
C1042      H1044   1.087       .  S
C1045      C1046   1.346       .  D
C1045      H1047   1.086       .  S
C1046      H1048   1.087       .  S
C1049      C1050   1.351       .  D
C1049      H1051   1.087       .  S
C1050      H1052   1.086       .  S
C1053      C1054   1.350   1_565  D
C1053      H1055   1.086       .  S
C1054      H1056   1.087       .  S
C1057      C1058   1.353       .  D
C1057      H1059   1.086       .  S
C1058      H1060   1.088       .  S
C1061      C1062   1.347   1_545  D
C1061      H1063   1.087       .  S
C1062      H1064   1.086       .  S
C1065      C1066   1.356       .  D
C1065      H1067   1.086       .  S
C1066      H1068   1.087       .  S
C1069      C1070   1.344   1_556  D
C1069      H1071   1.086       .  S
C1070      H1072   1.088       .  S
C1073      C1074   1.348       .  D
C1073      H1075   1.087   1_554  S
C1074      H1076   1.086       .  S
C1077      C1078   1.348       .  D
C1077      H1079   1.086       .  S
C1078      H1080   1.087       .  S
C1081      C1082   1.344       .  D
C1081      H1083   1.086       .  S
C1082      H1084   1.088       .  S
C1085      C1086   1.345       .  D
C1085      H1087   1.086       .  S
C1086      H1088   1.088       .  S
C1089      C1090   1.357       .  D
C1089      H1091   1.087       .  S
C1090      H1092   1.086       .  S
C1093      C1094   1.353       .  D
C1093      H1095   1.086       .  S
C1094      H1096   1.087       .  S
C1097      C1098   1.346   1_556  D
C1097      H1099   1.086       .  S
C1098      H1100   1.087       .  S
C1101      C1102   1.354       .  D
C1101      H1103   1.087   1_554  S
C1102      H1104   1.086       .  S
C1105      C1106   1.343       .  D
C1105      H1107   1.086       .  S
C1106      H1108   1.088   1_554  S
C1109      C1110   1.344       .  D
C1109      H1111   1.088       .  S
C1110      H1112   1.086       .  S
C1113      C1114   1.346       .  D
C1113      H1115   1.087       .  S
C1114      H1116   1.086       .  S
C1117      C1118   1.348       .  D
C1117      H1119   1.088       .  S
C1118      H1120   1.086       .  S
C1121      C1122   1.342       .  D
C1121      H1123   1.087       .  S
C1122      H1124   1.086       .  S
C1125      C1126   1.345   1_655  D
C1125      H1127   1.088       .  S
C1126      H1128   1.086       .  S
C1129      C1130   1.351       .  D
C1129      H1131   1.086       .  S
C1130      H1132   1.086       .  S
C1133      C1134   1.349   1_556  D
C1133      H1135   1.086       .  S
C1134      H1136   1.088       .  S
C1137      C1138   1.347   1_554  D
C1137      H1139   1.086       .  S
C1138      H1140   1.088       .  S
C1141      C1142   1.348       .  D
C1141      H1143   1.086       .  S
C1142      H1144   1.088   1_554  S
C1145      C1146   1.345       .  D
C1145      H1147   1.087   1_554  S
C1146      H1148   1.087       .  S
C1149      C1150   1.349       .  D
C1149      H1151   1.086       .  S
C1150      H1152   1.087       .  S
C1153      C1154   1.355       .  D
C1153      H1155   1.087       .  S
C1154      H1156   1.086       .  S
C1157      C1158   1.346       .  D
C1157      H1159   1.087       .  S
C1158      H1160   1.087       .  S
C1161      C1162   1.344       .  D
C1161      H1163   1.086       .  S
C1162      H1164   1.088       .  S
C1165      C1166   1.354   1_545  D
C1165      H1167   1.087       .  S
C1166      H1168   1.086       .  S
C1169      C1170   1.344       .  D
C1169      H1171   1.087       .  S
C1170      H1172   1.087       .  S
C1173      C1174   1.347       .  D
C1173      H1175   1.086       .  S
C1174      H1176   1.087   1_545  S
C1177      C1178   1.350       .  D
C1177      H1179   1.086       .  S
C1178      H1180   1.086       .  S
C1181      C1182   1.351       .  D
C1181      H1183   1.086       .  S
C1182      H1184   1.086       .  S
C1185      C1186   1.352       .  D
C1185      H1187   1.086       .  S
C1186      H1188   1.088       .  S
C1189      C1190   1.345       .  D
C1189      H1191   1.086       .  S
C1190      H1192   1.087       .  S
C1193      C1194   1.344       .  D
C1193      H1195   1.087       .  S
C1194      H1196   1.087       .  S
C1197      C1198   1.355       .  D
C1197      H1199   1.087       .  S
C1198      H1200   1.086       .  S
C1201      C1202   1.348       .  D
C1201      H1203   1.086       .  S
C1202      H1204   1.088       .  S
C1205      C1206   1.351       .  D
C1205      H1207   1.087       .  S
C1206      H1208   1.086       .  S
C1209      C1210   1.347       .  D
C1209      H1211   1.087       .  S
C1210      H1212   1.087       .  S
C1213      C1214   1.343       .  D
C1213      H1215   1.087       .  S
C1214      H1216   1.087       .  S
C1217      C1218   1.347   1_655  D
C1217      H1219   1.087       .  S
C1218      H1220   1.087       .  S
C1221      C1222   1.341       .  D
C1221      H1223   1.087       .  S
C1222      H1224   1.087       .  S
C1225      C1226   1.345       .  D
C1225      H1227   1.088   1_655  S
C1226      H1228   1.086       .  S
C1229      C1230   1.345       .  D
C1229      H1231   1.087       .  S
C1230      H1232   1.086       .  S
C1233      C1234   1.345       .  D
C1233      H1235   1.086       .  S
C1234      H1236   1.087       .  S
C1237      C1238   1.351       .  D
C1237      H1239   1.086       .  S
C1238      H1240   1.086       .  S
C1241      C1242   1.350       .  D
C1241      H1243   1.088       .  S
C1242      H1244   1.086       .  S
C1245      C1246   1.342       .  D
C1245      H1247   1.088       .  S
C1246      H1248   1.087       .  S
C1249      C1250   1.350       .  D
C1249      H1251   1.086       .  S
C1250      H1252   1.088       .  S
C1253      C1254   1.348       .  D
C1253      H1255   1.088       .  S
C1254      H1256   1.086       .  S
C1257      C1258   1.349       .  D
C1257      H1259   1.087       .  S
C1258      H1260   1.087       .  S
