geometry optimzed in LAMMPS
_audit_creation_date              2020-12-01 
_audit_creation_method            'lammps2cif' 
_symmetry_space_group_name_H-M    'P1' 
_symmetry_Int_Tables_number       1 
_symmetry_cell_setting            triclinic 
loop_ 
_symmetry_equiv_pos_as_xyz 
  x,y,z 
_cell_length_a                    35.16620727 
_cell_length_b                    35.3433409258071 
_cell_length_c                    48.165864251583464 
_cell_angle_alpha                 90.09667507101867 
_cell_angle_beta                  89.4907798257293 
_cell_angle_gamma                 120.14993096587477 
loop_ 
_atom_site_label 
_atom_site_type_symbol 
_atom_site_fract_x 
_atom_site_fract_y 
_atom_site_fract_z 
_atom_site_charge 
O1          O  0.67635116  0.51573259  0.59186703    -0.81700
C2          C  0.72578953  0.69180511  0.58444726     0.97700
O3          O  0.69616987  0.66645026  0.60157863    -0.70800
O4          O  0.64578452  0.60078886  0.57122209    -0.74400
Al5        Al  0.67130658  0.60357832  0.60526428     1.49000
C6          C  0.63733964  0.57358522  0.55220258     0.92900
O7          O  0.74784675  0.60373863  0.53833998    -0.80600
O8          O  0.78515390  0.60698506  0.61696082    -0.74200
Al9        Al  0.71206475  0.56243318  0.56701408     1.90100
O10         O  0.80061600  0.64594700  0.56618400    -0.73200
O11         O  0.75681691  0.66146866  0.63491234    -0.73100
O12         O  0.75940065  0.68796935  0.58043617    -0.78700
O13         O  0.69095729  0.60625440  0.64200858    -0.76900
O14         O  0.71772610  0.60377741  0.59045069    -1.13100
O15         O  0.63659110  0.54089953  0.61062184    -0.72300
C16         C  0.64308574  0.50934563  0.60585079     0.98500
C17         C  0.78779807  0.63223047  0.54204623     0.94800
Al18       Al  0.77114211  0.64717737  0.59906798     1.55600
O19         O  0.66046424  0.55573962  0.54865799    -0.76900
C20         C  0.72537231  0.63831227  0.65122156     0.99000
C21         C  0.78311225  0.57440209  0.60421703     0.93900
O22         O  0.76124310  0.55992189  0.58199796    -0.82200
O23         O  0.52845353  0.66375478  0.89664271    -0.81700
C24         C  0.70264008  0.70163573  0.90674572     0.97700
O25         O  0.67482896  0.67179614  0.89129970    -0.70800
O26         O  0.60875904  0.62855762  0.92445820    -0.74400
Al27       Al  0.61302632  0.65059178  0.88862531     1.49000
C28         C  0.58004154  0.62254522  0.94234099     0.92900
O29         O  0.61387150  0.73062215  0.95116862    -0.80600
O30         O  0.62521873  0.76821704  0.87221737    -0.74200
Al31       Al  0.57384944  0.69726459  0.92242999     1.90100
O32         O  0.66268741  0.78190011  0.92416712    -0.73200
O33         O  0.67398740  0.73219826  0.85574518    -0.73100
O34         O  0.70100225  0.73638084  0.91023631    -0.78700
O35         O  0.61713201  0.66685340  0.85104572    -0.76900
O36         O  0.61596082  0.69937157  0.90068534    -1.13100
O37         O  0.55078043  0.61871002  0.88391396    -0.72300
C38         C  0.52079375  0.62837086  0.88541891     0.98500
C39         C  0.64590256  0.76900074  0.94803253     0.94800
Al40       Al  0.66212441  0.75069774  0.89118042     1.55600
O41         O  0.56201322  0.64567784  0.94241737    -0.76900
C42         C  0.65104914  0.69887272  0.84088987     0.99000
C43         C  0.59296248  0.76854887  0.88409515     0.93900
O44         O  0.57633794  0.74757131  0.90637934    -0.82200
O45         O  0.47711636  0.13361522  0.58928803    -0.81700
C46         C  0.29957357  0.01275939  0.59393126     0.97700
O47         O  0.32584923  0.00890112  0.61008978    -0.70800
O48         O  0.38608809  0.01791436  0.57574149    -0.74400
Al49       Al  0.38934060  0.04477511  0.60959583     1.49000
C50         C  0.40785028  0.03381576  0.55391316     0.92900
O51         O  0.38218975  0.11536788  0.54290307    -0.80600
O52         O  0.39431874  0.15999018  0.62063278    -0.74200
Al53       Al  0.42718375  0.12234677  0.56816770     1.90100
O54         O  0.34656864  0.13217415  0.57282685    -0.73200
O55         O  0.33873984  0.07804800  0.64289584    -0.73100
O56         O  0.30355434  0.05018063  0.59033040    -0.78700
O57         O  0.39287548  0.06534621  0.64617676    -0.76900
O58         O  0.38919122  0.09060162  0.59464274    -1.13100
O59         O  0.45228466  0.07116843  0.61094958    -0.72300
C60         C  0.48407725  0.10808451  0.60380153     0.98500
C61         C  0.35556223  0.12862853  0.54795988     0.94800
Al62       Al  0.34896982  0.10399110  0.60604644     1.55600
O63         O  0.42716185  0.07452959  0.54949258    -0.76900
C64         C  0.36164008  0.06735458  0.65739381     0.99000
C65         C  0.42569726  0.18802421  0.60524606     0.93900
O66         O  0.43524859  0.17654282  0.58241272    -0.82200
O67         O  0.34163187  0.83737095  0.89797480    -0.81700
C68         C  0.29548255  0.96684790  0.90641741     0.97700
O69         O  0.32383504  0.96903513  0.88905733    -0.70800
O70         O  0.37436765  0.95387286  0.91982618    -0.74400
Al71       Al  0.34774824  0.93054869  0.88588923     1.49000
C72         C  0.38174837  0.93508073  0.93938301     0.92900
O73         O  0.27520418  0.85472116  0.95362778    -0.80600
O74         O  0.23107180  0.82102104  0.87693758    -0.74200
Al75       Al  0.30805347  0.84894081  0.92394844     1.90100
O76         O  0.22035945  0.84750755  0.92873382    -0.73200
O77         O  0.26133992  0.90332443  0.85785236    -0.73100
O78         O  0.26203061  0.93003095  0.91205028    -0.78700
O79         O  0.32651567  0.91254179  0.84953520    -0.76900
O80         O  0.30145519  0.88497962  0.90145019    -1.13100
O81         O  0.38207290  0.90268458  0.88037882    -0.72300
C82         C  0.37497783  0.86435054  0.88432013     0.98500
C83         C  0.23585188  0.84575695  0.95188695     0.94800
Al84       Al  0.24788568  0.87609498  0.89433637     1.55600
O85         O  0.36003815  0.89384154  0.94164614    -0.76900
C86         C  0.29273579  0.91242212  0.84112471     0.99000
C87         C  0.23445680  0.79058399  0.88852326     0.93900
O88         O  0.25787257  0.79754222  0.90988585    -0.82200
O89         O  0.84656187  0.31934133  0.60618285    -0.81700
C90         C  0.97756162  0.27744160  0.58725882     0.97700
O91         O  0.98295765  0.30720251  0.60424597    -0.70800
O92         O  0.96117317  0.35449459  0.57502057    -0.74400
Al93       Al  0.94386855  0.32998321  0.61062524     1.49000
C94         C  0.93770813  0.36141182  0.55872124     0.92900
O95         O  0.86073295  0.25317242  0.54854771    -0.80600
O96         O  0.83447211  0.21164755  0.62702193    -0.74200
Al97       Al  0.85608952  0.28601027  0.57883233     1.90100
O98         O  0.85669882  0.20046233  0.57421558    -0.73200
O99         O  0.92076528  0.24575636  0.64157248    -0.73100
O100        O  0.94034508  0.24308819  0.58571977    -0.78700
O101        O  0.93295053  0.31206092  0.64814314    -0.76900
O102        O  0.89598619  0.28205182  0.59891419    -1.13100
O103        O  0.91493138  0.36297964  0.61821847    -0.72300
C104        C  0.87543899  0.35447205  0.61719294     0.98500
C105        C  0.85326891  0.21442225  0.55081750     0.94800
Al106      Al  0.88881984  0.22954033  0.60677048     1.55600
O107        O  0.89642769  0.33780389  0.55943589    -0.76900
C108        C  0.93264161  0.27858715  0.65714941     0.99000
C109        C  0.80197701  0.21189662  0.61572061     0.93900
O110        O  0.80724922  0.23547592  0.59469564    -0.82200
O111        O  0.17929103  0.47082767  0.89099684    -0.81700
C112        C  0.03945467  0.30036123  0.91141937     0.97700
O113        O  0.03596096  0.32886192  0.89769715    -0.70800
O114        O  0.06810885  0.39741767  0.92998572    -0.74400
Al115      Al  0.07837335  0.38969560  0.89238714     1.49000
C116        C  0.09580205  0.42907389  0.94417619     0.92900
O117        O  0.16671350  0.39054582  0.94805622    -0.80600
O118        O  0.17968446  0.37132829  0.86817708    -0.74200
Al119      Al  0.17027264  0.42809643  0.91842186     1.90100
O120        O  0.16044189  0.33709742  0.92173362    -0.73200
O121        O  0.09358207  0.32687797  0.85637179    -0.73100
O122        O  0.07571853  0.30100112  0.91208576    -0.78700
O123        O  0.08330021  0.38284781  0.85395105    -0.76900
O124        O  0.12533290  0.38528553  0.90029210    -1.13100
O125        O  0.11016499  0.45157822  0.88572139    -0.72300
C126        C  0.15048320  0.48011735  0.88371406     0.98500
C127        C  0.16943729  0.35644189  0.94493584     0.94800
Al128      Al  0.12708308  0.33772241  0.89027007     1.55600
O129        O  0.13641398  0.44500272  0.94022794    -0.76900
C130        C  0.08271667  0.35047517  0.84262061     0.99000
C131        C  0.21449433  0.40317891  0.87784627     0.93900
O132        O  0.21405838  0.42146581  0.90017716    -0.82200
O133        O  0.27030495  0.44678691  0.38647424    -0.81700
C134        C  0.29907600  0.30857282  0.41397966     0.97700
O135        O  0.26520278  0.30340760  0.40142721    -0.70800
O136        O  0.22075732  0.33522647  0.42636718    -0.74400
Al137      Al  0.24709166  0.34502188  0.39039241     1.49000
C138        C  0.21485654  0.36214570  0.44012539     0.92900
O139        O  0.32048753  0.43076424  0.45070109    -0.80600
O140        O  0.37174307  0.45019872  0.37432614    -0.74200
Al141      Al  0.29482912  0.43664998  0.41768467     1.90100
O142        O  0.37386450  0.42717856  0.42883014    -0.73200
O143        O  0.33501602  0.36675048  0.36118036    -0.73100
O144        O  0.33287857  0.34589529  0.41528527    -0.78700
O145        O  0.26642316  0.34661994  0.35274100    -0.76900
O146        O  0.29676765  0.39257272  0.40095169    -1.13100
O147        O  0.21925938  0.37848144  0.37807241    -0.72300
C148        C  0.23424168  0.41954692  0.37583272     0.98500
C149        C  0.35799049  0.43417144  0.45055782     0.94800
Al150      Al  0.34879584  0.39693107  0.39526553     1.55600
O151        O  0.23811050  0.40254212  0.43524427    -0.76900
C152        C  0.30288239  0.35104877  0.34498126     0.99000
C153        C  0.37639262  0.48471827  0.38524671     0.93900
O154        O  0.35074038  0.48238952  0.40451877    -0.82200
O155        O  0.44706417  0.22385811  0.09537887    -0.81700
C156        C  0.31897982  0.26677605  0.08830451     0.97700
O157        O  0.32161499  0.23238094  0.08643899    -0.70800
O158        O  0.36178584  0.18806372  0.07556656    -0.74400
Al159      Al  0.35973974  0.21929720  0.10741839     1.49000
C160        C  0.37989186  0.19997577  0.05203659     0.92900
O161        O  0.46169355  0.32340272  0.05752968    -0.80600
O162        O  0.46902872  0.35203494  0.11647970    -0.74200
Al163      Al  0.44957672  0.27320754  0.07828224     1.90100
O164        O  0.41562594  0.34310695  0.07301702    -0.73200
O165        O  0.39972663  0.30359329  0.14729111    -0.73100
O166        O  0.34544052  0.29801636  0.10359972    -0.78700
O167        O  0.34494547  0.23705837  0.14188933    -0.76900
O168        O  0.40588129  0.27103136  0.09838080    -1.13100
O169        O  0.39601683  0.20253401  0.12812079    -0.72300
C170        C  0.42899317  0.20232116  0.11720791     0.98500
C171        C  0.44504646  0.34758153  0.05608082     0.94800
Al172      Al  0.40726586  0.31989013  0.10929514     1.55600
O173        O  0.41162476  0.23852749  0.04874308    -0.76900
C174        C  0.36688769  0.27003031  0.15706879     0.99000
C175        C  0.49957143  0.34311553  0.11599969     0.93900
O176        O  0.49322487  0.30799454  0.10490825    -0.82200
O177        O  0.55712727  0.80502543  0.38591944    -0.81700
C178        C  0.68820202  0.97394225  0.41472548     0.97700
O179        O  0.69640377  0.94763845  0.40162677    -0.70800
O180        O  0.66228414  0.87319627  0.42859026    -0.74400
Al181      Al  0.65670323  0.88693077  0.39138934     1.49000
C182        C  0.63367851  0.84304043  0.44362873     0.92900
O183        O  0.55770949  0.87689086  0.44373068    -0.80600
O184        O  0.55679197  0.90561485  0.36453826    -0.74200
Al185      Al  0.56067849  0.84344028  0.41372223     1.90100
O186        O  0.56629264  0.93182914  0.41816552    -0.73200
O187        O  0.64357118  0.95330903  0.35836093    -0.73100
O188        O  0.65088762  0.97060920  0.41365562    -0.78700
O189        O  0.65838476  0.90077699  0.35291082    -0.76900
O190        O  0.60738917  0.88866593  0.39809535    -1.13100
O191        O  0.62696711  0.82556393  0.38084561    -0.72300
C192        C  0.58665741  0.79740681  0.37783095     0.98500
C193        C  0.55369064  0.91003405  0.44028830     0.94800
Al194      Al  0.60492318  0.93634927  0.38933367     1.55600
O195        O  0.59336935  0.82663128  0.43791550    -0.76900
C196        C  0.65860862  0.93425070  0.34368907     0.99000
C197        C  0.52018391  0.87361190  0.37223411     0.93900
O198        O  0.51797509  0.85009816  0.39271890    -0.82200
O199        O  0.75795992  0.18698991  0.10964819    -0.81700
C200        C  0.71114743  0.01537697  0.07918211     0.97700
O201        O  0.74669331  0.04140852  0.09157223    -0.70800
O202        O  0.79037855  0.11579154  0.06467694    -0.74400
Al203      Al  0.77126617  0.10307800  0.10196603     1.49000
C204        C  0.79452732  0.14719942  0.05016369     0.92900
O205        O  0.68922997  0.11967610  0.05017301    -0.80600
O206        O  0.65538886  0.09024567  0.12931957    -0.74200
Al207      Al  0.72395791  0.15107642  0.08082310     1.90100
O208        O  0.63839034  0.06548044  0.07494066    -0.73200
O209        O  0.68928098  0.03933818  0.13522828    -0.73100
O210        O  0.67912008  0.02193915  0.07990707    -0.78700
O211        O  0.75800189  0.08978281  0.14036576    -0.76900
O212        O  0.72194707  0.10415333  0.09567863    -1.13100
O213        O  0.80610343  0.16497357  0.11274381    -0.72300
C214        C  0.79484063  0.19350134  0.11719118     0.98500
C215        C  0.65092158  0.08760930  0.05284873     0.94800
Al216      Al  0.67004796  0.05804532  0.10419753     1.55600
O217        O  0.77450436  0.16715534  0.05720410    -0.76900
C218        C  0.72320649  0.05789464  0.14999425     0.99000
C219        C  0.65196468  0.12258235  0.12182653     0.93900
O220        O  0.67390188  0.14560188  0.10115305    -0.82200
O221        O  0.82135800  0.54929637  0.08513583    -0.81700
C222        C  0.98887295  0.68699755  0.08784718     0.97700
O223        O  0.95071996  0.68150298  0.08436956    -0.70800
O224        O  0.86733967  0.63739012  0.07001562    -0.74400
Al225      Al  0.89790420  0.63798001  0.10246774     1.49000
C226        C  0.86485605  0.62303487  0.04580528     0.92900
O227        O  0.91869441  0.55128055  0.04897106    -0.80600
O228        O  0.93188683  0.53590970  0.10913504    -0.74200
Al229      Al  0.87356360  0.55460987  0.06900313     1.90100
O230        O  0.97962611  0.59767601  0.06979558    -0.73200
O231        O  0.94138844  0.59810660  0.14268463    -0.73100
O232        O  0.99389410  0.66068571  0.10312205    -0.78700
O233        O  0.92616498  0.65036209  0.13803986    -0.76900
O234        O  0.90944030  0.59633042  0.09222942    -1.13100
O235        O  0.84327689  0.59593659  0.12016615    -0.72300
C236        C  0.81310397  0.56328199  0.10728991     0.98500
C237        C  0.96010010  0.57175298  0.05023937     0.94800
Al238      Al  0.95746256  0.59786537  0.10516129     1.55600
O239        O  0.87657808  0.59516088  0.04119433    -0.76900
C240        C  0.93840986  0.62921520  0.15295247     0.99000
C241        C  0.89390334  0.50348835  0.10563182     0.93900
O242        O  0.86515602  0.50818449  0.09307732    -0.82200
O243        O  0.20500780  0.75767678  0.40488679    -0.81700
C244        C  0.03160748  0.71126642  0.40392698     0.97700
O245        O  0.06839483  0.74577713  0.40733935    -0.70800
O246        O  0.15207853  0.79153828  0.42211063    -0.74400
Al247      Al  0.12248065  0.75979496  0.38901619     1.49000
C248        C  0.15519090  0.77909993  0.44616952     0.92900
O249        O  0.11601271  0.65575750  0.44087142    -0.80600
O250        O  0.10145755  0.62788399  0.38231835    -0.74200
Al251      Al  0.15626369  0.70719432  0.42089190     1.90100
O252        O  0.05192599  0.63675442  0.42302451    -0.73200
O253        O  0.08387190  0.67520205  0.34959899    -0.73100
O254        O  0.02953913  0.67991797  0.38992309    -0.78700
O255        O  0.09352604  0.74094684  0.35350226    -0.76900
O256        O  0.11656514  0.70856745  0.39902582    -1.13100
O257        O  0.17783504  0.77744341  0.37040217    -0.72300
C258        C  0.21032638  0.77863966  0.38256191     0.98500
C259        C  0.07478517  0.63137923  0.44072939     0.94800
Al260      Al  0.07069141  0.65926205  0.38713145     1.55600
O261        O  0.14878151  0.74085093  0.44952238    -0.76900
C262        C  0.08370727  0.70749497  0.33898078     0.99000
C263        C  0.14127563  0.63795684  0.38389536     0.93900
O264        O  0.16873091  0.67345412  0.39526016    -0.82200
C265        C  0.96634335  0.62316071  0.22769991    -0.01900
C266        C  0.99315030  0.66784637  0.23441694     0.06700
C267        C  0.99771627  0.69967660  0.21521369    -0.07800
C268        C  0.97773886  0.68773933  0.18917249     0.04200
C269        C  0.95313185  0.64302022  0.18178644    -0.15100
C270        C  0.94711273  0.61115913  0.20145322    -0.08400
C271        C  0.01919132  0.68187343  0.26041323     0.05100
C272        C  0.04927958  0.66762118  0.26538550    -0.09500
C273        C  0.07285097  0.67785998  0.29016025     0.00100
C274        C  0.06705612  0.70355609  0.31040594     0.00000
C275        C  0.03900274  0.72007377  0.30469115    -0.13100
C276        C  0.01486367  0.70919685  0.28005473     0.00400
C277        C  0.10247664  0.66127171  0.29436853     0.39700
C278        C  0.98399413  0.72430176  0.27619392     0.36300
C279        C  0.95809380  0.58905458  0.24740901     0.36100
C280        C  0.98584734  0.72223196  0.16981939     0.36800
N281        N  0.12614885  0.64792868  0.29779063    -0.44000
N282        N  0.95923968  0.73640783  0.27313601    -0.44400
N283        N  0.99236216  0.74989998  0.15433425    -0.41800
N284        N  0.95136430  0.56175426  0.26325360    -0.43200
H285        H  0.92795728  0.57677147  0.19611280     0.13000
H286        H  0.01841364  0.73404694  0.22017320     0.09400
H287        H  0.05373500  0.64767342  0.25001237     0.10500
H288        H  0.03383300  0.73932592  0.32024047     0.16300
C289        C  0.84329418  0.38015609  0.10644803    -0.01900
C290        C  0.86734282  0.37351205  0.12724491     0.06700
C291        C  0.89895492  0.40963042  0.14214309    -0.07800
C292        C  0.90742260  0.45217587  0.13612027     0.04200
C293        C  0.88376163  0.45900727  0.11486192    -0.15100
C294        C  0.85132432  0.42237345  0.10059999    -0.08400
C295        C  0.85912545  0.32860662  0.13306021     0.05100
C296        C  0.88088734  0.31212294  0.11679739    -0.09500
C297        C  0.86420604  0.26678679  0.11461480     0.00100
C298        C  0.82495626  0.23738799  0.12876779     0.00000
C299        C  0.80679916  0.25434089  0.14779711    -0.13100
C300        C  0.82343987  0.29950876  0.14997783     0.00400
C301        C  0.88464636  0.25132933  0.09505178     0.39700
C302        C  0.80060886  0.31493154  0.16755268     0.36300
C303        C  0.81089394  0.34397229  0.09029412     0.36100
C304        C  0.94011151  0.48800523  0.15234235     0.36800
N305        N  0.90116496  0.23907560  0.07936987    -0.44000
N306        N  0.78221636  0.32716054  0.18166528    -0.44400
N307        N  0.96630229  0.51680854  0.16529029    -0.41800
N308        N  0.78517038  0.31479131  0.07738579    -0.43200
H309        H  0.83308638  0.42677652  0.08412335     0.13000
H310        H  0.91719346  0.40460675  0.15833149     0.09400
H311        H  0.90849738  0.33441327  0.10382265     0.10500
H312        H  0.77662477  0.23207312  0.15877476     0.16300
C313        C  0.30994751  0.81246155  0.33627190    -0.01900
C314        C  0.34435840  0.83508300  0.35542571     0.06700
C315        C  0.33425962  0.84495453  0.38170901    -0.07800
C316        C  0.29075376  0.82978399  0.38993947     0.04200
C317        C  0.25592673  0.80434345  0.37162925    -0.15100
C318        C  0.26600328  0.79730911  0.34447500    -0.08400
C319        C  0.39057492  0.84530513  0.35049223     0.05100
C320        C  0.42472559  0.88897349  0.35256417    -0.09500
C321        C  0.46834071  0.89929565  0.35688109     0.00100
C322        C  0.47840281  0.86543662  0.35946922     0.00000
C323        C  0.44487182  0.82203815  0.35507139    -0.13100
C324        C  0.40135856  0.81179163  0.35037627     0.00400
C325        C  0.50102297  0.94444891  0.36180186     0.39700
C326        C  0.36781239  0.76633287  0.34793626     0.36300
C327        C  0.31888266  0.80352172  0.30848049     0.36100
C328        C  0.28260520  0.83921192  0.41786307     0.36800
N329        N  0.52717609  0.98061503  0.36585809    -0.44000
N330        N  0.34093750  0.72993266  0.34574789    -0.44400
N331        N  0.27612010  0.84658905  0.44026956    -0.41800
N332        N  0.32600766  0.79635908  0.28617354    -0.43200
H333        H  0.23952697  0.77770999  0.33028517     0.13000
H334        H  0.36043926  0.86264309  0.39649341     0.09400
H335        H  0.41673224  0.91489670  0.35292943     0.10500
H336        H  0.45221858  0.79578411  0.35697968     0.16300
C337        C  0.67817086  0.98312900  0.21247640    -0.01900
C338        C  0.71010099  0.00607113  0.23290225     0.06700
C339        C  0.74759187  0.04608003  0.22577972    -0.07800
C340        C  0.75294537  0.06395942  0.19905891     0.04200
C341        C  0.72090811  0.04086180  0.17855919    -0.15100
C342        C  0.68405267  0.00027294  0.18569435    -0.08400
C343        C  0.70308059  0.98991780  0.26208082     0.05100
C344        C  0.69502112  0.94742830  0.26759200    -0.09500
C345        C  0.68152715  0.92856135  0.29405600     0.00100
C346        C  0.67674842  0.95282483  0.31578918     0.00000
C347        C  0.68769251  0.99635395  0.31053343    -0.13100
C348        C  0.70041596  0.01484771  0.28409044     0.00400
C349        C  0.67051716  0.88364663  0.29770840     0.39700
C350        C  0.70814063  0.05864600  0.27990635     0.36300
C351        C  0.63791141  0.94288793  0.21872896     0.36100
C352        C  0.79040739  0.10683352  0.19385068     0.36800
N353        N  0.66157780  0.84758084  0.30053139    -0.44000
N354        N  0.71444782  0.09379090  0.27668145    -0.44400
N355        N  0.82023036  0.14134459  0.18970194    -0.41800
N356        N  0.60566276  0.91066427  0.22371116    -0.43200
H357        H  0.65893159  0.98194213  0.17041434     0.13000
H358        H  0.77222899  0.06397205  0.24140366     0.09400
H359        H  0.69756204  0.92828222  0.25081818     0.10500
H360        H  0.68510995  0.01590240  0.32702559     0.16300
C361        C  0.62235643  0.39796876  0.12866034    -0.01900
C362        C  0.63313500  0.44106010  0.13529052     0.06700
C363        C  0.59915358  0.45013103  0.13995774    -0.07800
C364        C  0.55499525  0.41781601  0.13622952     0.04200
C365        C  0.54423374  0.37553354  0.12662934    -0.15100
C366        C  0.57837330  0.36578978  0.12430552    -0.08400
C367        C  0.67880887  0.47809956  0.13144369     0.05100
C368        C  0.68887280  0.50030364  0.10603742    -0.09500
C369        C  0.73230335  0.53006384  0.09851033     0.00100
C370        C  0.76687227  0.53990693  0.11719881     0.00000
C371        C  0.75654974  0.51985633  0.14350839    -0.13100
C372        C  0.71287310  0.48840069  0.15052647     0.00400
C373        C  0.74038009  0.54723319  0.07055723     0.39700
C374        C  0.70404717  0.46536743  0.17660430     0.36300
C375        C  0.65623678  0.38680966  0.12439403     0.36100
C376        C  0.52201794  0.42991801  0.14154598     0.36800
N377        N  0.74577290  0.55961118  0.04785025    -0.44000
N378        N  0.69701018  0.44664563  0.19743403    -0.44400
N379        N  0.49572321  0.43972933  0.14600863    -0.41800
N380        N  0.68349332  0.37796554  0.12114003    -0.43200
H381        H  0.57110309  0.33350375  0.11770105     0.13000
H382        H  0.60734062  0.48321555  0.14524488     0.09400
H383        H  0.66282867  0.49206259  0.09118538     0.10500
H384        H  0.78287367  0.52623688  0.15769627     0.16300
C385        C  0.50013676  0.17749955  0.16264739    -0.01900
C386        C  0.51095651  0.15332625  0.14410490     0.06700
C387        C  0.48822313  0.13875437  0.11912868    -0.07800
C388        C  0.45820869  0.15136756  0.11110046     0.04200
C389        C  0.44861015  0.17744798  0.12890123    -0.15100
C390        C  0.46846034  0.18880189  0.15513675    -0.08400
C391        C  0.55024629  0.14847905  0.14727428     0.05100
C392        C  0.54420568  0.10650573  0.15117599    -0.09500
C393        C  0.57830348  0.09787220  0.14548242     0.00100
C394        C  0.61933727  0.13179074  0.13534606     0.00000
C395        C  0.62632416  0.17452773  0.13384200    -0.13100
C396        C  0.59225844  0.18305714  0.13961907     0.00400
C397        C  0.56856785  0.05310868  0.14757840     0.39700
C398        C  0.59992666  0.22668142  0.13478529     0.36300
C399        C  0.52322097  0.19332564  0.18848825     0.36100
C400        C  0.44188634  0.14122732  0.08307094     0.36800
N401        N  0.56067747  0.01720745  0.14924042    -0.44000
N402        N  0.60597455  0.26158228  0.13084700    -0.44400
N403        N  0.43035766  0.13360380  0.06029111    -0.41800
N404        N  0.54198379  0.20606391  0.20913839    -0.43200
H405        H  0.46237315  0.20984938  0.16859718     0.13000
H406        H  0.49695960  0.12069620  0.10467264     0.09400
H407        H  0.51177597  0.07975487  0.15667990     0.10500
H408        H  0.65767553  0.20091685  0.12633139     0.16300
C409        C  0.50784573  0.68819342  0.34873153    -0.01900
C410        C  0.51927622  0.66088074  0.36348563     0.06700
C411        C  0.55983774  0.68014879  0.37732444    -0.07800
C412        C  0.58567120  0.72579414  0.37987966     0.04200
C413        C  0.57188403  0.75288573  0.36729707    -0.15100
C414        C  0.53445608  0.73369282  0.35044523    -0.08400
C415        C  0.48611089  0.61389466  0.36881917     0.05100
C416        C  0.46573904  0.58503648  0.34652614    -0.09500
C417        C  0.42989088  0.54263374  0.35101380     0.00100
C418        C  0.41455978  0.52821045  0.37830782     0.00000
C419        C  0.43598437  0.55653776  0.40052550    -0.13100
C420        C  0.47105933  0.59887044  0.39611716     0.00400
C421        C  0.40738396  0.51636185  0.32720877     0.39700
C422        C  0.48943359  0.62677731  0.42004866     0.36300
C423        C  0.46646652  0.67076698  0.33445036     0.36100
C424        C  0.62231280  0.74340497  0.39875285     0.36800
N425        N  0.38943462  0.49610717  0.30780287    -0.44000
N426        N  0.50414796  0.64893132  0.43929401    -0.44400
N427        N  0.65133583  0.75745153  0.41412576    -0.41800
N428        N  0.43325856  0.65685224  0.32307662    -0.43200
H429        H  0.52349203  0.75430273  0.34089729     0.13000
H430        H  0.56911785  0.65943290  0.38847769     0.09400
H431        H  0.47675089  0.59631522  0.32547507     0.10500
H432        H  0.42482273  0.54567573  0.42161812     0.16300
C433        C  0.37318040  0.28943004  0.23448537    -0.01900
C434        C  0.33221096  0.28660004  0.24027303     0.06700
C435        C  0.30096610  0.27282723  0.21896582    -0.07800
C436        C  0.31056016  0.26393325  0.19223451     0.04200
C437        C  0.35284172  0.27079431  0.18600133    -0.15100
C438        C  0.38351235  0.28274770  0.20738846    -0.08400
C439        C  0.32327075  0.30222998  0.26720403     0.05100
C440        C  0.35499299  0.34342328  0.27717391    -0.09500
C441        C  0.34900291  0.35969030  0.30229036     0.00100
C442        C  0.30878879  0.33644383  0.31712904     0.00000
C443        C  0.27623321  0.29584034  0.30679994    -0.13100
C444        C  0.28364347  0.27805562  0.28256024     0.00400
C445        C  0.38576336  0.39938671  0.31281912     0.39700
C446        C  0.25144292  0.23386579  0.27498494     0.36300
C447        C  0.40518444  0.29897110  0.25594449     0.36100
C448        C  0.27724743  0.25012245  0.17118329     0.36800
N449        N  0.41595727  0.43039841  0.32144172    -0.44000
N450        N  0.22582928  0.19829841  0.26904401    -0.44400
N451        N  0.25037851  0.23863453  0.15439099    -0.41800
N452        N  0.43085308  0.30652318  0.27310293    -0.43200
H453        H  0.41576513  0.28714366  0.20284083     0.13000
H454        H  0.26952526  0.27067133  0.22284888     0.09400
H455        H  0.38527069  0.36282405  0.26551918     0.10500
H456        H  0.24601699  0.27676724  0.31858780     0.16300
C457        C  0.13054030  0.53260807  0.35553118    -0.01900
C458        C  0.17164839  0.53726382  0.36192791     0.06700
C459        C  0.20507944  0.57772523  0.37178946    -0.07800
C460        C  0.19713175  0.61219354  0.37730803     0.04200
C461        C  0.15441926  0.60606334  0.37367023    -0.15100
C462        C  0.12206705  0.56649591  0.36169648    -0.08400
C463        C  0.17987601  0.49981231  0.36033177     0.05100
C464        C  0.21334802  0.50286743  0.34275894    -0.09500
C465        C  0.22783103  0.47253135  0.34470934     0.00100
C466        C  0.20831949  0.43798391  0.36418693     0.00000
C467        C  0.17213858  0.43259380  0.37989613    -0.13100
C468        C  0.15839021  0.46358888  0.37856400     0.00400
C469        C  0.26517437  0.47937499  0.32814227     0.39700
C470        C  0.12587075  0.46035692  0.39844636     0.36300
C471        C  0.09673765  0.49338026  0.34249362     0.36100
C472        C  0.23341909  0.65305714  0.38691389     0.36800
N473        N  0.29512989  0.48476692  0.31492390    -0.44000
N474        N  0.10011957  0.45803479  0.41452442    -0.44400
N475        N  0.26255736  0.68595274  0.39438837    -0.41800
N476        N  0.06991376  0.46203068  0.33180766    -0.43200
H477        H  0.08955317  0.56142308  0.35764218     0.13000
H478        H  0.23724797  0.58195792  0.37599585     0.09400
H479        H  0.22998906  0.53051497  0.32870328     0.10500
H480        H  0.15795298  0.40708306  0.39556950     0.16300
C481        C  0.23663899  0.35671562  0.00646853    -0.01900
C482        C  0.22175225  0.31164771  0.01042545     0.06700
C483        C  0.18773399  0.28129190  0.99339639    -0.07800
C484        C  0.17041264  0.29496859  0.97200442     0.04200
C485        C  0.18524682  0.33999336  0.96813413    -0.15100
C486        C  0.21776615  0.37027048  0.98595983    -0.08400
C487        C  0.24233198  0.29579411  0.03132427     0.05100
C488        C  0.24730162  0.31021517  0.05901521    -0.09500
C489        C  0.27049761  0.29987163  0.07833556     0.00100
C490        C  0.28762659  0.27265177  0.07059044     0.00000
C491        C  0.28012353  0.25587033  0.04344736    -0.13100
C492        C  0.25860969  0.26773998  0.02380524     0.00400
C493        C  0.27704631  0.31858469  0.10575420     0.39700
C494        C  0.25666772  0.25318730  0.99554968     0.36300
C495        C  0.27310066  0.39004169  0.02196162     0.36100
C496        C  0.13723765  0.26189308  0.95446023     0.36800
N497        N  0.28252702  0.33399787  0.12762097    -0.44000
N498        N  0.25511834  0.24161974  0.97288179    -0.44400
N499        N  0.11073308  0.23540567  0.94035264    -0.41800
N500        N  0.30240411  0.41675516  0.03432153    -0.43200
H501        H  0.23005371  0.40493867  0.98300047     0.13000
H502        H  0.17519792  0.24660951  0.99643529     0.09400
H503        H  0.23416275  0.33085200  0.06539019     0.10500
H504        H  0.29381068  0.23575219  0.03691772     0.16300
C505        C  0.92103693  0.22515130  0.93377715    -0.01900
C506        C  0.92581563  0.21864867  0.96212306     0.06700
C507        C  0.96813617  0.23547250  0.97289607    -0.07800
C508        C  0.00553997  0.26044081  0.95636631     0.04200
C509        C  0.00106498  0.26814884  0.92811610    -0.15100
C510        C  0.95852469  0.24988134  0.91705553    -0.08400
C511        C  0.88778291  0.19754090  0.98173826     0.05100
C512        C  0.87720329  0.15748662  0.99402177    -0.09500
C513        C  0.84562597  0.13931884  0.01537418     0.00100
C514        C  0.82450093  0.16204812  0.02536729     0.00000
C515        C  0.83404791  0.20137047  0.01210355    -0.13100
C516        C  0.86526276  0.21911553  0.99055675     0.00400
C517        C  0.83609177  0.09748361  0.02651680     0.39700
C518        C  0.87518402  0.26064052  0.97873820     0.36300
C519        C  0.87803875  0.20733985  0.92162955     0.36100
C520        C  0.04756179  0.28204638  0.96998029     0.36800
N521        N  0.82840589  0.06390314  0.03534967    -0.39200
N522        N  0.88303215  0.29385955  0.96921458    -0.44400
N523        N  0.08064702  0.29979459  0.98158659    -0.41800
N524        N  0.84349810  0.19298486  0.91197411    -0.43200
H525        H  0.95457445  0.25596074  0.89551077     0.13000
H526        H  0.97192307  0.23114926  0.99479344     0.09400
H527        H  0.89436458  0.14074197  0.98720970     0.10500
H528        H  0.81816634  0.21923424  0.01913110     0.16300
C529        C  0.08393369  0.52207851  0.96980315    -0.01900
C530        C  0.04754192  0.50073286  0.98780233     0.06700
C531        C  0.02881401  0.45586160  0.99332357    -0.07800
C532        C  0.04531320  0.43165366  0.98033516     0.04200
C533        C  0.08117758  0.45286386  0.96189439    -0.15100
C534        C  0.10070954  0.49806774  0.95714638    -0.08400
C535        C  0.02882720  0.52477544  0.00151749     0.05100
C536        C  0.99038634  0.52156075  0.99092977    -0.09500
C537        C  0.96905965  0.54015398  0.00518447     0.00100
C538        C  0.98611420  0.56154556  0.03069213     0.00000
C539        C  0.02662445  0.56751298  0.03995263    -0.13100
C540        C  0.04797523  0.54923024  0.02557699     0.00400
C541        C  0.92989553  0.53667288  0.99326946     0.39700
C542        C  0.08827840  0.55403087  0.03655289     0.36300
C543        C  0.10345461  0.56808274  0.96334666     0.36100
C544        C  0.02568237  0.38559324  0.98649504     0.36800
N545        N  0.89865674  0.53415752  0.98366899    -0.44000
N546        N  0.12061481  0.55783676  0.04520165    -0.44400
N547        N  0.01016691  0.34873074  0.99154376    -0.41800
N548        N  0.11898651  0.60490443  0.95814135    -0.43200
H549        H  0.12784513  0.51427235  0.94246368     0.13000
H550        H  0.00115625  0.43982486  0.00761732     0.09400
H551        H  0.97658509  0.50365943  0.97186413     0.10500
H552        H  0.04043078  0.58414855  0.05937787     0.16300
C553        C  0.00860331  0.28042384  0.71274430    -0.01900
C554        C  0.99783020  0.29884512  0.73539515     0.06700
C555        C  0.96252812  0.30653812  0.73287015    -0.07800
C556        C  0.93896034  0.29749072  0.70807676     0.04200
C557        C  0.95044725  0.28021311  0.68517064    -0.15100
C558        C  0.98462327  0.27085845  0.68801061    -0.08400
C559        C  0.02353043  0.31187788  0.76163302     0.05100
C560        C  0.04647863  0.35626203  0.76897124    -0.09500
C561        C  0.06756821  0.36985779  0.79465161     0.00100
C562        C  0.06623827  0.33862038  0.81366803     0.00000
C563        C  0.04476410  0.29435596  0.80573297    -0.13100
C564        C  0.02305728  0.28080085  0.78018935     0.00400
C565        C  0.08983830  0.41605475  0.80094247     0.39700
C566        C  0.99798963  0.23458681  0.77427411     0.36300
C567        C  0.04571537  0.27355672  0.71379817     0.36100
C568        C  0.90291346  0.30596770  0.70663350     0.36800
N569        N  0.10746667  0.45302676  0.80603942    -0.44000
N570        N  0.97765769  0.19755767  0.76949290    -0.44400
N571        N  0.87385754  0.31251433  0.70548003    -0.41800
N572        N  0.07551062  0.26811686  0.71459041    -0.43200
H573        H  0.99430272  0.25845561  0.67032520     0.13000
H574        H  0.95375752  0.32026507  0.75026594     0.09400
H575        H  0.04706067  0.38033784  0.75476054     0.10500
H576        H  0.04285503  0.26989316  0.82013470     0.16300
C577        C  0.08361007  0.33885384  0.54527185    -0.01900
C578        C  0.07958222  0.30768852  0.52546535     0.06700
C579        C  0.04351618  0.26507713  0.52730668    -0.07800
C580        C  0.01075296  0.25363558  0.54781855     0.04200
C581        C  0.01417126  0.28509918  0.56759074    -0.15100
C582        C  0.05147081  0.32740516  0.56609584    -0.08400
C583        C  0.11239202  0.31950038  0.50244786     0.05100
C584        C  0.14196103  0.30374195  0.50293330    -0.09500
C585        C  0.17539506  0.31695089  0.48272185     0.00100
C586        C  0.17961394  0.34647649  0.46157597     0.00000
C587        C  0.14963616  0.36168997  0.46088588    -0.13100
C588        C  0.11589648  0.34803350  0.48081173     0.00400
C589        C  0.20665143  0.30200511  0.48505452     0.39700
C590        C  0.08484216  0.36323877  0.47846469     0.36300
C591        C  0.12020273  0.38316230  0.54424138     0.36100
C592        C  0.97372793  0.20962830  0.54733652     0.36800
N593        N  0.23203288  0.29044872  0.48693776    -0.44000
N594        N  0.05980087  0.37521332  0.47652992    -0.44400
N595        N  0.94423534  0.17424325  0.54665650    -0.41800
N596        N  0.14950965  0.41865022  0.54309934    -0.43200
H597        H  0.05489849  0.35240315  0.58058780     0.13000
H598        H  0.04030982  0.24096586  0.51212633     0.09400
H599        H  0.13962263  0.28200825  0.51956262     0.10500
H600        H  0.15234104  0.38400911  0.44457083     0.16300
C601        C  0.05916840  0.55887499  0.50212721    -0.01900
C602        C  0.02284163  0.51903774  0.49362550     0.06700
C603        C  0.00163718  0.51715602  0.46881091    -0.07800
C604        C  0.01628964  0.55400564  0.45207494     0.04200
C605        C  0.05387219  0.59379033  0.45989285    -0.15100
C606        C  0.07479375  0.59574453  0.48502193    -0.08400
C607        C  0.00315002  0.47942066  0.51106295     0.05100
C608        C  0.96014812  0.46382932  0.52062300    -0.09500
C609        C  0.93773802  0.42466424  0.53523466     0.00100
C610        C  0.95868067  0.40022621  0.54063842     0.00000
C611        C  0.00213118  0.41612603  0.53130815    -0.13100
C612        C  0.02437762  0.45534915  0.51631985     0.00400
C613        C  0.89406246  0.41171537  0.54539356     0.39700
C614        C  0.06824082  0.46958859  0.50601471     0.36300
C615        C  0.08002805  0.56301204  0.52851696     0.36100
C616        C  0.99263691  0.54905325  0.42668822     0.36800
N617        N  0.85908975  0.40148215  0.55345672    -0.44000
N618        N  0.10339255  0.48090526  0.49780085    -0.44400
N619        N  0.97320601  0.54465280  0.40651617    -0.41800
N620        N  0.09675620  0.56653880  0.54969986    -0.43200
H621        H  0.10345699  0.62612780  0.49128356     0.13000
H622        H  0.97318500  0.48653336  0.46256789     0.09400
H623        H  0.94395363  0.48250287  0.51652427     0.10500
H624        H  0.01862872  0.39783170  0.53566338     0.16300
C625        C  0.78726730  0.07912290  0.43887226    -0.01900
C626        C  0.77668707  0.07912508  0.46723192     0.06700
C627        C  0.73957229  0.04234229  0.47841060    -0.07800
C628        C  0.71223343  0.00673737  0.46167312     0.04200
C629        C  0.72117512  0.00785500  0.43300029    -0.15100
C630        C  0.75929344  0.04363557  0.42188223    -0.08400
C631        C  0.80297182  0.11691649  0.48592751     0.05100
C632        C  0.80216415  0.15595807  0.48235625    -0.09500
C633        C  0.82011616  0.18934716  0.50239961     0.00100
C634        C  0.83901954  0.18365928  0.52676186     0.00000
C635        C  0.84155635  0.14528763  0.52937956    -0.13100
C636        C  0.82417918  0.11241675  0.50926714     0.00400
C637        C  0.81632495  0.22770896  0.49805102     0.39700
C638        C  0.82792124  0.07391319  0.51317972     0.36300
C639        C  0.82702890  0.11464269  0.42704754     0.36100
C640        C  0.67534340  0.96894350  0.47439060     0.36800
N641        N  0.81327837  0.25846239  0.49452958    -0.44000
N642        N  0.83101224  0.04309212  0.51618359    -0.44400
N643        N  0.64601010  0.93840990  0.48447809    -0.41800
N644        N  0.85919970  0.14291893  0.41767626    -0.43200
H645        H  0.76656213  0.04435545  0.39990082     0.13000
H646        H  0.73169296  0.04168078  0.50029567     0.09400
H647        H  0.78571844  0.15952845  0.46445080     0.10500
H648        H  0.85610975  0.14016831  0.54769686     0.16300
C649        C  0.21990613  0.69107963  0.85128796    -0.01900
C650        C  0.18627661  0.65731241  0.86739815     0.06700
C651        C  0.16345292  0.66802941  0.88704909    -0.07800
C652        C  0.17605110  0.71178719  0.89232658     0.04200
C653        C  0.21168755  0.74561775  0.87760021    -0.15100
C654        C  0.23229793  0.73487896  0.85646043    -0.08400
C655        C  0.17849931  0.61178221  0.86697904     0.05100
C656        C  0.21231744  0.60462908  0.87579547    -0.09500
C657        C  0.20505856  0.56219619  0.87979343     0.00100
C658        C  0.16288023  0.52547113  0.87492876     0.00000
C659        C  0.12979981  0.53292248  0.86454727    -0.13100
C660        C  0.13718939  0.57544034  0.86070978     0.00400
C661        C  0.24097836  0.55791421  0.89044564     0.39700
C662        C  0.10170811  0.58101566  0.85073649     0.36300
C663        C  0.24332306  0.68154101  0.83022536     0.36100
C664        C  0.15364382  0.72149787  0.91401210     0.36800
N665        N  0.26980918  0.55460719  0.89904276    -0.44000
N666        N  0.07326347  0.58546813  0.84272791    -0.44400
N667        N  0.13567433  0.72942489  0.93130434    -0.41800
N668        N  0.26198132  0.67368159  0.81337561    -0.43200
H669        H  0.26016647  0.76083645  0.84534984     0.13000
H670        H  0.13756023  0.64232606  0.89952692     0.09400
H671        H  0.24413359  0.63250472  0.88082176     0.10500
H672        H  0.09736653  0.50543472  0.86032252     0.16300
C673        C  0.35857157  0.15371574  0.97861902    -0.01900
C674        C  0.33525791  0.10800582  0.98342546     0.06700
C675        C  0.32670223  0.09290156  0.01096551    -0.07800
C676        C  0.34026154  0.12193839  0.03340050     0.04200
C677        C  0.36403534  0.16784605  0.02868014    -0.15100
C678        C  0.37291581  0.18300641  0.00108913    -0.08400
C679        C  0.32219758  0.07515440  0.96046494     0.05100
C680        C  0.35431909  0.07865483  0.94149326    -0.09500
C681        C  0.34507732  0.04601387  0.92176642     0.00100
C682        C  0.30338235  0.00702405  0.92177072     0.00000
C683        C  0.27049890  0.00467368  0.93977431    -0.13100
C684        C  0.27927313  0.03854330  0.95853602     0.00400
C685        C  0.37972943  0.05363773  0.90232000     0.39700
C686        C  0.24356716  0.03508099  0.97547323     0.36300
C687        C  0.36755965  0.17146104  0.95081703     0.36100
C688        C  0.33089440  0.10315308  0.06098636     0.36800
N689        N  0.40748323  0.06024500  0.88659069    -0.44000
N690        N  0.21487557  0.03246130  0.98889561    -0.44400
N691        N  0.32371877  0.08804866  0.08305126    -0.41800
N692        N  0.37488672  0.18559146  0.92849797    -0.43200
H693        H  0.39075546  0.21791680  0.99699592     0.13000
H694        H  0.31004993  0.05798671  0.01503393     0.09400
H695        H  0.38738590  0.10654188  0.94257088     0.10500
H696        H  0.23797946  0.97582638  0.93969558     0.16300
C697        C  0.48657142  0.03228687  0.96463269    -0.01900
C698        C  0.49964693  0.01320563  0.98524816     0.06700
C699        C  0.47084819  0.96997299  0.99369457    -0.07800
C700        C  0.43052465  0.94452488  0.98056665     0.04200
C701        C  0.41899513  0.96224806  0.95804187    -0.15100
C702        C  0.44668232  0.00677483  0.95115021    -0.08400
C703        C  0.54305672  0.03749221  0.99853224     0.05100
C704        C  0.55261110  0.07390382  0.01500524    -0.09500
C705        C  0.59058096  0.09367423  0.03104380     0.00100
C706        C  0.61889555  0.07633092  0.03091302     0.00000
C707        C  0.61094952  0.04181418  0.01320148    -0.13100
C708        C  0.57350854  0.02262681  0.99668357     0.00400
C709        C  0.59876846  0.13020076  0.04854832     0.39700
C710        C  0.56658874  0.98733697  0.97839346     0.36300
C711        C  0.51416835  0.07741012  0.95628695     0.36100
C712        C  0.40192296  0.90069885  0.99082725     0.36800
N713        N  0.60551047  0.15965248  0.06243007    -0.44000
N714        N  0.56125469  0.95926049  0.96361857    -0.44400
N715        N  0.37888310  0.86571577  0.99925158    -0.41800
N716        N  0.53613371  0.11367050  0.94979671    -0.43200
H717        H  0.43813389  0.02155094  0.93441333     0.13000
H718        H  0.48023675  0.95594953  0.01047077     0.09400
H719        H  0.52943266  0.08562252  0.01626460     0.10500
H720        H  0.63299949  0.02867038  0.01319346     0.16300
C721        C  0.15365040  0.83706946  0.00655102    -0.01900
C722        C  0.14261288  0.79718669  0.01991711     0.06700
C723        C  0.16519310  0.77535859  0.01202645    -0.07800
C724        C  0.19702176  0.79177251  0.99072152     0.04200
C725        C  0.20660401  0.83061327  0.97665782    -0.15100
C726        C  0.18500909  0.85312372  0.98492947    -0.08400
C727        C  0.10445259  0.77509036  0.03971214     0.05100
C728        C  0.06246532  0.76441632  0.03048609    -0.09500
C729        C  0.02463294  0.73853852  0.04659832     0.00100
C730        C  0.02810509  0.72214034  0.07270985     0.00000
C731        C  0.07048880  0.73471270  0.08249934    -0.13100
C732        C  0.10833907  0.76095795  0.06640045     0.00400
C733        C  0.98272442  0.72712003  0.03467491     0.39700
C734        C  0.15077618  0.77268760  0.07764762     0.36300
C735        C  0.13322809  0.86209384  0.01467858     0.36100
C736        C  0.21690596  0.76639371  0.98217897     0.36800
N737        N  0.94942634  0.71839177  0.02481709    -0.44000
N738        N  0.18475616  0.78213089  0.08674437    -0.44400
N739        N  0.23264913  0.74597911  0.97513225    -0.41800
N740        N  0.11692172  0.88219634  0.02125171    -0.43200
H741        H  0.19235175  0.88307971  0.97426848     0.13000
H742        H  0.15652877  0.74433599  0.02169343     0.09400
H743        H  0.05897429  0.77471131  0.00992006     0.10500
H744        H  0.07407023  0.72287812  0.10251427     0.16300
C745        C  0.34667565  0.24947844  0.45310723    -0.01900
C746        C  0.30926414  0.20955957  0.46065345     0.06700
C747        C  0.26784948  0.20038873  0.45104040    -0.07800
C748        C  0.26331709  0.23085178  0.43461577     0.04200
C749        C  0.30082770  0.27167253  0.42788360    -0.15100
C750        C  0.34227490  0.27955538  0.43674366    -0.08400
C751        C  0.31302982  0.18022710  0.48123948     0.05100
C752        C  0.29798200  0.17934725  0.50834276    -0.09500
C753        C  0.30942418  0.16089265  0.53014434     0.00100
C754        C  0.33681734  0.14262943  0.52500226     0.00000
C755        C  0.34888113  0.14057173  0.49731205    -0.13100
C756        C  0.33721031  0.15908280  0.47556411     0.00400
C757        C  0.29395882  0.16333542  0.55760647     0.39700
C758        C  0.35167910  0.15743596  0.44767945     0.36300
C759        C  0.38976948  0.26184459  0.46356802     0.36100
C760        C  0.21977657  0.21989238  0.42598746     0.36800
N761        N  0.28156739  0.16551865  0.57956438    -0.44000
N762        N  0.36324350  0.15618464  0.42530280    -0.44400
N763        N  0.18481554  0.21092880  0.41903908    -0.41800
N764        N  0.42424442  0.27184578  0.47204227    -0.43200
H765        H  0.37171147  0.31031999  0.43177174     0.13000
H766        H  0.23888298  0.16985208  0.45701971     0.09400
H767        H  0.27925388  0.19546190  0.51277303     0.10500
H768        H  0.36891411  0.12596110  0.49267203     0.16300
C769        C  0.58131292  0.09782018  0.62860790    -0.01900
C770        C  0.61736245  0.14018254  0.62393622     0.06700
C771        C  0.60930102  0.17261936  0.61363827    -0.07800
C772        C  0.56653012  0.16349349  0.60756935     0.04200
C773        C  0.53014277  0.12070959  0.61174155    -0.15100
C774        C  0.53836716  0.08852617  0.62269199    -0.08400
C775        C  0.66404612  0.15121041  0.62775764     0.05100
C776        C  0.68141605  0.13151182  0.61041328    -0.09500
C777        C  0.72689624  0.14751536  0.60903660     0.00100
C778        C  0.75600388  0.18379718  0.62526704     0.00000
C779        C  0.73836613  0.20108635  0.64432741    -0.13100
C780        C  0.69278025  0.18495371  0.64578148     0.00400
C781        C  0.74336048  0.12851045  0.58910986     0.39700
C782        C  0.67625641  0.20465365  0.66509380     0.36300
C783        C  0.58755177  0.06339311  0.63961922     0.36100
C784        C  0.56150623  0.19895701  0.59699259     0.36800
N785        N  0.75644007  0.11314434  0.57317297    -0.44000
N786        N  0.66277711  0.22020402  0.68060601    -0.44400
N787        N  0.55756347  0.22739468  0.58847775    -0.41800
N788        N  0.59248859  0.03575171  0.64846340    -0.43200
H789        H  0.51126174  0.05558609  0.62616273     0.13000
H790        H  0.63684463  0.20521256  0.60976803     0.09400
H791        H  0.65974035  0.10551700  0.59651814     0.10500
H792        H  0.76042857  0.22945444  0.65651994     0.16300
C793        C  0.28970399  0.00175615  0.71792082    -0.01900
C794        C  0.32093696  0.00321928  0.73677093     0.06700
C795        C  0.36584709  0.03036781  0.73075143    -0.07800
C796        C  0.37995454  0.05434370  0.70592760     0.04200
C797        C  0.34878866  0.05141551  0.68640960    -0.15100
C798        C  0.30379541  0.02607490  0.69314651    -0.08400
C799        C  0.30803625  0.97578240  0.76242629     0.05100
C800        C  0.32134996  0.94457357  0.76529785    -0.09500
C801        C  0.31430932  0.92138449  0.79022120     0.00100
C802        C  0.29283679  0.92870602  0.81275104     0.00000
C803        C  0.27751002  0.95825618  0.80935076    -0.13100
C804        C  0.28564496  0.98231638  0.78469893     0.00400
C805        C  0.33018355  0.89091660  0.79236235     0.39700
C806        C  0.27407248  0.01610823  0.78364337     0.36300
C807        C  0.24313037  0.97341403  0.72268008     0.36100
C808        C  0.42664980  0.08140891  0.70090188     0.36800
N809        N  0.34297582  0.86658183  0.79421094    -0.44000
N810        N  0.26509376  0.04341387  0.78283774    -0.44400
N811        N  0.46406456  0.10312993  0.69687803    -0.41800
N812        N  0.20580155  0.95069987  0.72651226    -0.43200
H813        H  0.27946593  0.02292597  0.67821544     0.13000
H814        H  0.39003634  0.03218947  0.74534154     0.09400
H815        H  0.33852273  0.93931188  0.74826161     0.10500
H816        H  0.26200009  0.96499914  0.82672223     0.16300
C817        C  0.25600166  0.90765774  0.55264618    -0.01900
C818        C  0.22277461  0.90734530  0.53625437     0.06700
C819        C  0.21133947  0.93969820  0.54118273    -0.07800
C820        C  0.23364836  0.97288893  0.56108773     0.04200
C821        C  0.26813418  0.97407746  0.57681965    -0.15100
C822        C  0.27759843  0.94013177  0.57279004    -0.08400
C823        C  0.20148416  0.87462466  0.51324519     0.05100
C824        C  0.17880312  0.82956789  0.51937161    -0.09500
C825        C  0.16285128  0.79785900  0.49819000     0.00100
C826        C  0.16866800  0.81084340  0.46991423     0.00000
C827        C  0.18982784  0.85601369  0.46395145    -0.13100
C828        C  0.20657081  0.88761092  0.48510657     0.00400
C829        C  0.14092661  0.75234346  0.50623940     0.39700
C830        C  0.23145502  0.93319911  0.47725652     0.36300
C831        C  0.27094640  0.87688967  0.54774088     0.36100
C832        C  0.22054562  0.00528646  0.56481164     0.36800
N833        N  0.12351172  0.71587313  0.51273947    -0.44000
N834        N  0.25164766  0.96969936  0.47090325    -0.44400
N835        N  0.20998773  0.03121294  0.56788434    -0.41800
N836        N  0.28302094  0.85235776  0.54362401    -0.43200
H837        H  0.30402935  0.94026021  0.58428550     0.13000
H838        H  0.18546911  0.93955803  0.52899674     0.09400
H839        H  0.17452410  0.81910495  0.54089337     0.10500
H840        H  0.19509362  0.86696901  0.44251467     0.16300
C841        C  0.46020687  0.90310252  0.48189088    -0.01900
C842        C  0.47594171  0.94772203  0.48766587     0.06700
C843        C  0.51981459  0.97870778  0.48131768    -0.07800
C844        C  0.54696210  0.96652381  0.46751635     0.04200
C845        C  0.53069287  0.92225218  0.46068734    -0.15100
C846        C  0.48784996  0.89069441  0.46867232    -0.08400
C847        C  0.44849269  0.96326782  0.50143884     0.05100
C848        C  0.42993629  0.94598486  0.52745077    -0.09500
C849        C  0.41178467  0.96562852  0.54379313     0.00100
C850        C  0.41411288  0.00487353  0.53456499     0.00000
C851        C  0.42892469  0.01967921  0.50745344    -0.13100
C852        C  0.44534702  0.99874900  0.49069278     0.00400
C853        C  0.39401436  0.94609806  0.57059461     0.39700
C854        C  0.45990520  0.01500132  0.46284744     0.36300
C855        C  0.41532618  0.86988168  0.48789773     0.36100
C856        C  0.59098803  0.00025867  0.45993545     0.36800
N857        N  0.37958862  0.93003011  0.59193519    -0.44000
N858        N  0.47142824  0.02797502  0.44051107    -0.44400
N859        N  0.62611203  0.02749919  0.45381685    -0.41800
N860        N  0.37940086  0.84325419  0.49283231    -0.43200
H861        H  0.47499304  0.85676309  0.46286405     0.13000
H862        H  0.53264577  0.01281096  0.48666256     0.09400
H863        H  0.43188978  0.91851461  0.53576562     0.10500
H864        H  0.42935125  0.04870503  0.49972889     0.16300
C865        C  0.83852569  0.64886490  0.97400583    -0.01900
C866        C  0.81017056  0.66521539  0.98047062     0.06700
C867        C  0.80056467  0.66816875  0.00839071    -0.07800
C868        C  0.81882225  0.65584851  0.02974381     0.04200
C869        C  0.84643023  0.63826316  0.02344097    -0.15100
C870        C  0.85587140  0.63502606  0.99537239    -0.08400
C871        C  0.78808470  0.67739954  0.95874206     0.05100
C872        C  0.76032156  0.64557296  0.93977202    -0.09500
C873        C  0.73421025  0.65343162  0.92150524     0.00100
C874        C  0.73521352  0.69421593  0.92206532     0.00000
C875        C  0.76465757  0.72671504  0.94028689    -0.13100
C876        C  0.79083222  0.71868047  0.95844397     0.00400
C877        C  0.70553426  0.61793819  0.90343887     0.39700
C878        C  0.81986345  0.75317475  0.97693038     0.36300
C879        C  0.85139537  0.64739607  0.94567219     0.36100
C880        C  0.80691574  0.66032861  0.05786402     0.36800
N881        N  0.68255457  0.58936594  0.88906327    -0.44000
N882        N  0.84307251  0.78068703  0.99185069    -0.44400
N883        N  0.79724057  0.66382307  0.08035520    -0.41800
N884        N  0.86182436  0.64657107  0.92292604    -0.43200
H885        H  0.87741325  0.62236137  0.99010658     0.13000
H886        H  0.77815832  0.67986046  0.01356979     0.09400
H887        H  0.75764865  0.61361995  0.94001670     0.10500
H888        H  0.76627090  0.75815898  0.94110362     0.16300
C889        C  0.54330885  0.50758840  0.96390760    -0.01900
C890        C  0.52125292  0.50378061  0.98923591     0.06700
C891        C  0.52199504  0.54078042  0.00058322    -0.07800
C892        C  0.54303061  0.58095532  0.98653933     0.04200
C893        C  0.56366412  0.58416228  0.96068488    -0.15100
C894        C  0.56432261  0.54750120  0.95004796    -0.08400
C895        C  0.49985359  0.46210589  0.00484991     0.05100
C896        C  0.52561694  0.44397800  0.01248191    -0.09500
C897        C  0.50762385  0.40496045  0.02736037     0.00100
C898        C  0.46300080  0.38411000  0.03600925     0.00000
C899        C  0.43692010  0.40192283  0.02795349    -0.13100
C900        C  0.45483678  0.44038081  0.01216529     0.00400
C901        C  0.53662023  0.38855223  0.03432075     0.39700
C902        C  0.42639715  0.45655147  0.00344781     0.36300
C903        C  0.54386989  0.47076964  0.95125358     0.36100
C904        C  0.54426655  0.61848859  0.99939445     0.36800
N905        N  0.55993379  0.37542405  0.03965136    -0.44000
N906        N  0.40349763  0.46935136  0.99640631    -0.44400
N907        N  0.54560020  0.64867119  0.00980089    -0.41800
N908        N  0.54471418  0.44146295  0.94115636    -0.43200
H909        H  0.57980959  0.54938935  0.93005129     0.13000
H910        H  0.50635772  0.53827975  0.02061062     0.09400
H911        H  0.56033458  0.46079059  0.00697211     0.10500
H912        H  0.40257557  0.38600915  0.03424393     0.16300
C913        C  0.31296218  0.48980852  0.84224789    -0.01900
C914        C  0.34602808  0.48889806  0.85814204     0.06700
C915        C  0.33493629  0.45214375  0.87477576    -0.07800
C916        C  0.29121651  0.41865398  0.87773968     0.04200
C917        C  0.25758293  0.42174768  0.86410463    -0.15100
C918        C  0.26903218  0.45625056  0.84533169    -0.08400
C919        C  0.39115866  0.52742798  0.86047926     0.05100
C920        C  0.39659023  0.56606580  0.87250980    -0.09500
C921        C  0.43839650  0.60026825  0.87993530     0.00100
C922        C  0.47608533  0.59632977  0.87493501     0.00000
C923        C  0.47043715  0.55844239  0.86143556    -0.13100
C924        C  0.42864594  0.52413151  0.85456124     0.00400
C925        C  0.44088790  0.63753390  0.89406465     0.39700
C926        C  0.42482118  0.48501016  0.84240588     0.36300
C927        C  0.32305522  0.52575950  0.82371251     0.36100
C928        C  0.28100178  0.38375743  0.89727147     0.36800
N929        N  0.44283701  0.66726670  0.90552659    -0.44000
N930        N  0.42147587  0.45338352  0.83292751    -0.44400
N931        N  0.27287421  0.35584060  0.91292926    -0.41800
N932        N  0.33108878  0.55444160  0.80873179    -0.43200
H933        H  0.24325133  0.45936097  0.83525224     0.13000
H934        H  0.36010896  0.45108085  0.88704962     0.09400
H935        H  0.36776181  0.56850315  0.87753529     0.10500
H936        H  0.49863794  0.55462813  0.85713207     0.16300
C937        C  0.48496736  0.87694891  0.86328913    -0.01900
C938        C  0.47656161  0.83352120  0.86446658     0.06700
C939        C  0.43325596  0.79955789  0.86928164    -0.07800
C940        C  0.39906805  0.80833066  0.87434136     0.04200
C941        C  0.40786801  0.85214699  0.87459816    -0.15100
C942        C  0.45081880  0.88582893  0.86807404    -0.08400
C943        C  0.51291030  0.82324832  0.86470287     0.05100
C944        C  0.54420062  0.84133874  0.88587358    -0.09500
C945        C  0.57428217  0.82714599  0.89031962     0.00100
C946        C  0.57363467  0.79421191  0.87344894     0.00000
C947        C  0.54440027  0.77802109  0.85106761    -0.13100
C948        C  0.51412165  0.79234118  0.84656360     0.00400
C949        C  0.60351279  0.84443551  0.91371609     0.39700
C950        C  0.48360332  0.77386563  0.82389547     0.36300
C951        C  0.52875506  0.91314597  0.85814089     0.36100
C952        C  0.35577461  0.77160609  0.88004805     0.36800
N953        N  0.62696647  0.85799147  0.93244651    -0.44000
N954        N  0.45905904  0.75921060  0.80575390    -0.44400
N955        N  0.32123831  0.74206391  0.88478955    -0.41800
N956        N  0.56394022  0.94211869  0.85421143    -0.43200
H957        H  0.45843404  0.91960377  0.86805364     0.13000
H958        H  0.42649703  0.76609010  0.87049290     0.09400
H959        H  0.54338306  0.86473165  0.90011453     0.10500
H960        H  0.54303272  0.75198170  0.83838707     0.16300
C961        C  0.64266490  0.82467328  0.01472184    -0.01900
C962        C  0.68254719  0.86495851  0.01326587     0.06700
C963        C  0.71317780  0.87100129  0.99240800    -0.07800
C964        C  0.70326826  0.83905768  0.97193152     0.04200
C965        C  0.66157639  0.80018307  0.97189932    -0.15100
C966        C  0.63250579  0.79285279  0.99418609    -0.08400
C967        C  0.69013889  0.90301944  0.03074733     0.05100
C968        C  0.72201059  0.91887780  0.05172809    -0.09500
C969        C  0.72970227  0.95526375  0.06799733     0.00100
C970        C  0.70570650  0.97687171  0.06298394     0.00000
C971        C  0.67403109  0.96070639  0.04184727    -0.13100
C972        C  0.66612321  0.92443866  0.02591879     0.00400
C973        C  0.76079778  0.96846476  0.09036619     0.39700
C974        C  0.63351591  0.91015263  0.00434197     0.36300
C975        C  0.61101359  0.81591436  0.03664108     0.36100
C976        C  0.73655735  0.84725501  0.95126504     0.36800
N977        N  0.78547685  0.97896303  0.10846241    -0.44000
N978        N  0.60726572  0.89861636  0.98714225    -0.44400
N979        N  0.76345286  0.85385906  0.93485214    -0.41800
N980        N  0.58565351  0.80881999  0.05423524    -0.43200
H981        H  0.60074679  0.76303037  0.99493162     0.13000
H982        H  0.74422689  0.90161447  0.99142709     0.09400
H983        H  0.74049741  0.90242234  0.05563384     0.10500
H984        H  0.65524748  0.97676173  0.03746819     0.16300
C985        C  0.70956103  0.83165182  0.49487351    -0.01900
C986        C  0.68114567  0.79151166  0.50827901     0.06700
C987        C  0.63618962  0.77004106  0.50186591    -0.07800
C988        C  0.61959964  0.78668633  0.48180012     0.04200
C989        C  0.64832148  0.82592009  0.46732357    -0.15100
C990        C  0.69316766  0.84820668  0.47461202    -0.08400
C991        C  0.69711088  0.77069158  0.52874951     0.05100
C992        C  0.67924769  0.76146744  0.55575388    -0.09500
C993        C  0.68946191  0.73772142  0.57473456     0.00100
C994        C  0.71906946  0.72321157  0.56712175     0.00000
C995        C  0.73808576  0.73386042  0.54032969    -0.13100
C996        C  0.72682713  0.75648249  0.52111495     0.00400
C997        C  0.66813724  0.72792482  0.60161294     0.39700
C998        C  0.74337673  0.76148240  0.49300692     0.36300
C999        C  0.75557779  0.85689668  0.50181378     0.36100
C1000       C  0.57307346  0.76197584  0.47625044     0.36800
N1001       N  0.65070233  0.71989127  0.62306725    -0.44000
N1002       N  0.75639386  0.76526176  0.47043478    -0.44400
N1003       N  0.53573149  0.74221646  0.47189820    -0.41800
N1004       N  0.79249233  0.87729224  0.50727558    -0.43200
H1005       H  0.71584732  0.87870254  0.46429211     0.13000
H1006       H  0.61393580  0.73942250  0.51224216     0.09400
H1007       H  0.65607842  0.77186408  0.56180181     0.10500
H1008       H  0.75979851  0.72200387  0.53364570     0.16300
C1009       C  0.51805551  0.53591934  0.54214437    -0.01900
C1010       C  0.51002441  0.51650679  0.51579879     0.06700
C1011       C  0.54530070  0.52000250  0.49976244    -0.07800
C1012       C  0.58805280  0.54058261  0.51034698     0.04200
C1013       C  0.59573048  0.55834546  0.53726582    -0.15100
C1014       C  0.56063018  0.55692249  0.55249324    -0.08400
C1015       C  0.46505174  0.49193710  0.50462541     0.05100
C1016       C  0.44254511  0.51429613  0.49859072    -0.09500
C1017       C  0.40311634  0.49359251  0.48391072     0.00100
C1018       C  0.38658849  0.45027791  0.47471231     0.00000
C1019       C  0.40688841  0.42678259  0.48304993    -0.13100
C1020       C  0.44567513  0.44713673  0.49824175     0.00400
C1021       C  0.38271674  0.51869507  0.47617160     0.39700
C1022       C  0.46583793  0.42193815  0.50623151     0.36300
C1023       C  0.48283284  0.53237616  0.55965246     0.36100
C1024       C  0.62331650  0.54366825  0.49314680     0.36800
N1025       N  0.36634691  0.53878979  0.46997287    -0.44000
N1026       N  0.48191398  0.40172426  0.51276211    -0.44400
N1027       N  0.65160099  0.54639230  0.47924225    -0.41800
N1028       N  0.45468378  0.52946564  0.57377539    -0.43200
H1029       H  0.56586227  0.57012331  0.57335791     0.13000
H1030       H  0.53918983  0.50594825  0.47911803     0.09400
H1031       H  0.45707060  0.54860536  0.50395321     0.10500
H1032       H  0.39400095  0.39334833  0.47604913     0.16300
C1033       C  0.49838715  0.30987355  0.59392219    -0.01900
C1034       C  0.51446626  0.32589951  0.62061046     0.06700
C1035       C  0.49855892  0.29656267  0.64325140    -0.07800
C1036       C  0.46774742  0.25161901  0.63928522     0.04200
C1037       C  0.45239939  0.23558765  0.61231399    -0.15100
C1038       C  0.46775993  0.26555054  0.59003765    -0.08400
C1039       C  0.54861081  0.37313343  0.62410608     0.05100
C1040       C  0.53524682  0.40447055  0.62475033    -0.09500
C1041       C  0.56547848  0.44921466  0.62034137     0.00100
C1042       C  0.61061808  0.46367995  0.61536420     0.00000
C1043       C  0.62416624  0.43234379  0.61653487    -0.13100
C1044       C  0.59377498  0.38763371  0.62061772     0.00400
C1045       C  0.54819173  0.47852710  0.61858120     0.39700
C1046       C  0.60931239  0.35685184  0.61908109     0.36300
C1047       C  0.51434736  0.33831917  0.56992645     0.36100
C1048       C  0.45444138  0.22227767  0.66277841     0.36800
N1049       N  0.53392458  0.50167266  0.61707132    -0.44000
N1050       N  0.62194937  0.33232966  0.61770312    -0.44400
N1051       N  0.44369117  0.19851024  0.68150562    -0.41800
N1052       N  0.52764122  0.36142675  0.55087847    -0.43200
H1053       H  0.45663195  0.25402694  0.56914791     0.13000
H1054       H  0.51091413  0.30853963  0.66385938     0.09400
H1055       H  0.50048959  0.39352712  0.62679075     0.10500
H1056       H  0.65847089  0.44247409  0.61294233     0.16300
C1057       C  0.72851323  0.71250606  0.78153986    -0.01900
C1058       C  0.69969016  0.68224092  0.76189317     0.06700
C1059       C  0.65445099  0.65892881  0.76782137    -0.07800
C1060       C  0.63759322  0.66478844  0.79284190     0.04200
C1061       C  0.66628369  0.69529951  0.81258965    -0.15100
C1062       C  0.71161496  0.71922300  0.80639351    -0.08400
C1063       C  0.71496815  0.67357249  0.73494120     0.05100
C1064       C  0.70406739  0.63040497  0.72878228    -0.09500
C1065       C  0.70961966  0.61864873  0.70191552     0.00100
C1066       C  0.72704475  0.65055303  0.68071840     0.00000
C1067       C  0.74110489  0.69432355  0.68731042    -0.13100
C1068       C  0.73460760  0.70594486  0.71405046     0.00400
C1069       C  0.69632141  0.57350014  0.69637960     0.39700
C1070       C  0.74477261  0.75039401  0.71880777     0.36300
C1071       C  0.77558581  0.73538809  0.77736310     0.36100
C1072       C  0.59071141  0.63864386  0.79755822     0.36800
N1073       N  0.68570712  0.53739764  0.69173849    -0.44000
N1074       N  0.75289216  0.78600267  0.72267564    -0.44400
N1075       N  0.55316942  0.61737069  0.80128648    -0.41800
N1076       N  0.81334178  0.75381217  0.77412139    -0.43200
H1077       H  0.73426956  0.74183616  0.82156860     0.13000
H1078       H  0.63209222  0.63566818  0.75277894     0.09400
H1079       H  0.68923254  0.60539260  0.74474985     0.10500
H1080       H  0.75419010  0.71895153  0.67103780     0.16300
C1081       C  0.80980072  0.50177995  0.64773365    -0.01900
C1082       C  0.83551676  0.49311541  0.62887841     0.06700
C1083       C  0.84798474  0.51560711  0.60349137    -0.07800
C1084       C  0.83339842  0.54432509  0.59597335     0.04200
C1085       C  0.80651300  0.55210029  0.61431223    -0.15100
C1086       C  0.79600592  0.53162811  0.64049583    -0.08400
C1087       C  0.84592063  0.45746295  0.63309198     0.05100
C1088       C  0.81154892  0.41386348  0.63200558    -0.09500
C1089       C  0.82007578  0.37930828  0.62866640     0.00100
C1090       C  0.86404428  0.38804007  0.62658742     0.00000
C1091       C  0.89834515  0.43157307  0.63005607    -0.13100
C1092       C  0.88965862  0.46605108  0.63298492     0.00400
C1093       C  0.78283095  0.33564128  0.62607688     0.39700
C1094       C  0.92620813  0.51031556  0.63447419     0.36300
C1095       C  0.79612219  0.47943856  0.67412618     0.36100
C1096       C  0.84467261  0.56356043  0.56857651     0.36800
N1097       N  0.75288740  0.30073872  0.62380285    -0.44000
N1098       N  0.95540252  0.54584504  0.63557168    -0.44400
N1099       N  0.85356086  0.57821664  0.54642253    -0.41800
N1100       N  0.78505935  0.46145496  0.69527139    -0.43200
H1101       H  0.77472065  0.53675233  0.65453099     0.13000
H1102       H  0.86727292  0.50878274  0.58874284     0.09400
H1103       H  0.77782867  0.40700984  0.63190500     0.10500
H1104       H  0.93228276  0.43926561  0.62872806     0.16300
C1105       C  0.83721084  0.65685129  0.46878637    -0.01900
C1106       C  0.88264101  0.67592539  0.47406198     0.06700
C1107       C  0.89683409  0.68339877  0.50160070    -0.07800
C1108       C  0.86693430  0.67085019  0.52378223     0.04200
C1109       C  0.82085282  0.64898156  0.51875725    -0.15100
C1110       C  0.80676282  0.64290895  0.49100560    -0.08400
C1111       C  0.91639091  0.68633396  0.45177429     0.05100
C1112       C  0.95187860  0.72934306  0.44914932    -0.09500
C1113       C  0.98859287  0.73910042  0.43232095     0.00100
C1114       C  0.99059106  0.70523778  0.41779898     0.00000
C1115       C  0.95365463  0.66266298  0.41920046    -0.13100
C1116       C  0.91712154  0.65300113  0.43604482     0.00400
C1117       C  0.02395467  0.78396821  0.43095809     0.39700
C1118       C  0.88233449  0.60795121  0.43845932     0.36300
C1119       C  0.82129419  0.65248497  0.44079802     0.36100
C1120       C  0.88525426  0.67987553  0.55138034     0.36800
N1121       N  0.05229630  0.81994589  0.42981248    -0.44000
N1122       N  0.85439123  0.57188829  0.44038583    -0.44400
N1123       N  0.90021364  0.68721623  0.57339208    -0.41800
N1124       N  0.80860160  0.64936155  0.41835216    -0.43200
H1125       H  0.77194731  0.62755623  0.48661680     0.13000
H1126       H  0.93170463  0.69835618  0.50583715     0.09400
H1127       H  0.95156684  0.75519110  0.46113797     0.10500
H1128       H  0.95413709  0.63600667  0.40833727     0.16300
loop_ 
_geom_bond_atom_site_label_1 
_geom_bond_atom_site_label_2 
_geom_bond_distance 
_geom_bond_site_symmetry_2 
_ccdc_geom_bond_type 
O1           C16   1.263       .  A
O1           Al9   1.906       .  S
C2           O12   1.269       .  A
C2            O3   1.272       .  A
C2          C994   1.501       .  S
O3           Al5   1.944       .  S
O4            C6   1.252       .  A
O4           Al5   1.855       .  S
Al5          O13   1.891       .  S
Al5          O15   1.935       .  S
Al5          O14   1.772       .  S
C6           O19   1.265       .  A
C6         C1013   1.475       .  S
O7           C17   1.266       .  A
O7           Al9   1.937       .  S
O8           C21   1.274       .  A
O8          Al18   1.928       .  S
Al9          O22   1.923       .  S
Al9          O19   1.931       .  S
Al9          O14   1.776       .  S
O10          C17   1.256       .  A
O10         Al18   1.898       .  S
O11          C20   1.260       .  A
O11         Al18   1.930       .  S
O12         Al18   1.914       .  S
O13          C20   1.255       .  A
O14         Al18   1.781       .  S
O15          C16   1.266       .  A
C16        C1042   1.504       .  S
C17        C1109   1.499       .  S
C20        C1066   1.477       .  S
C21          O22   1.271       .  A
C21        C1085   1.482       .  S
O23          C38   1.261       .  A
O23         Al31   1.904       .  S
C24          O34   1.269       .  A
C24          O25   1.263       .  A
C24         C874   1.498       .  S
O25         Al27   1.916       .  S
O26          C28   1.256       .  A
O26         Al27   1.868       .  S
Al27         O35   1.882       .  S
Al27         O37   1.909       .  S
Al27         O36   1.772       .  S
C28          O41   1.261       .  A
C28         C893   1.471       .  S
O29          C39   1.263       .  A
O29         Al31   1.910       .  S
O30          C43   1.271       .  A
O30         Al40   1.932       .  S
Al31         O44   1.901       .  S
Al31         O41   1.913       .  S
Al31         O36   1.777       .  S
O32          C39   1.264       .  A
O32         Al40   1.927       .  S
O33          C42   1.266       .  A
O33         Al40   1.942       .  S
O34         Al40   1.920       .  S
O35          C42   1.256       .  A
O36         Al40   1.780       .  S
O37          C38   1.263       .  A
C38         C922   1.494       .  S
C39         C965   1.496       .  S
C42        C1061   1.488       .  S
C43          O44   1.265       .  A
C43         C946   1.475       .  S
O45          C60   1.261       .  A
O45         Al53   1.899       .  S
C46          O56   1.270       .  A
C46          O47   1.272       .  A
C46         C821   1.505   1_545  S
O47         Al49   1.936       .  S
O48          C50   1.250       .  A
O48         Al49   1.861       .  S
Al49         O57   1.886       .  S
Al49         O59   1.924       .  S
Al49         O58   1.776       .  S
C50          O63   1.263       .  A
C50         C850   1.477       .  S
O51          C61   1.262       .  A
O51         Al53   1.920       .  S
O52          C65   1.280       .  A
O52         Al62   1.949       .  S
Al53         O66   1.917       .  S
Al53         O63   1.913       .  S
Al53         O58   1.772       .  S
O54          C61   1.258       .  A
O54         Al62   1.911       .  S
O55          C64   1.263       .  A
O55         Al62   1.945       .  S
O56         Al62   1.925       .  S
O57          C64   1.253       .  A
O58         Al62   1.784       .  S
O59          C60   1.265       .  A
C60         C773   1.501       .  S
C61         C754   1.498       .  S
C64         C797   1.487       .  S
C65          O66   1.271       .  A
C65        C1037   1.497       .  S
O67          C82   1.258       .  A
O67         Al75   1.893       .  S
C68          O78   1.268       .  A
C68          O69   1.268       .  A
C68         C682   1.498   1_565  S
O69         Al71   1.930       .  S
O70          C72   1.255       .  A
O70         Al71   1.864       .  S
Al71         O79   1.890       .  S
Al71         O81   1.920       .  S
Al71         O80   1.776       .  S
C72          O85   1.265       .  A
C72         C701   1.483       .  S
O73          C83   1.259       .  A
O73         Al75   1.904       .  S
O74          C87   1.271       .  A
O74         Al84   1.920       .  S
Al75         O88   1.916       .  S
Al75         O85   1.922       .  S
Al75         O80   1.777       .  S
O76          C83   1.261       .  A
O76         Al84   1.923       .  S
O77          C86   1.265       .  A
O77         Al84   1.942       .  S
O78         Al84   1.913       .  S
O79          C86   1.256       .  A
O80         Al84   1.784       .  S
O81          C82   1.263       .  A
C82         C941   1.495       .  S
C83         C725   1.482       .  S
C86         C802   1.483       .  S
C87          O88   1.268       .  A
C87         C653   1.473       .  S
O89         C104   1.263       .  A
O89         Al97   1.902       .  S
C90         O100   1.264       .  A
C90          O91   1.269       .  A
C90         C581   1.502   1_655  S
O91         Al93   1.933       .  S
O92          C94   1.254       .  A
O92         Al93   1.876       .  S
Al93        O101   1.887       .  S
Al93        O103   1.927       .  S
Al93        O102   1.781       .  S
C94         O107   1.260       .  A
C94         C610   1.470       .  S
O95         C105   1.263       .  A
O95         Al97   1.919       .  S
O96         C109   1.274       .  A
O96        Al106   1.939       .  S
Al97        O110   1.904       .  S
Al97        O107   1.900       .  S
Al97        O102   1.774       .  S
O98         C105   1.262       .  A
O98        Al106   1.911       .  S
O99         C108   1.265       .  A
O99        Al106   1.945       .  S
O100       Al106   1.907       .  S
O101        C108   1.256       .  A
O102       Al106   1.784       .  S
O103        C104   1.266       .  A
C104       C1090   1.498       .  S
C105        C634   1.495       .  S
C108        C557   1.482       .  S
C109        O110   1.264       .  A
C109        C778   1.479       .  S
O111        C126   1.264       .  A
O111       Al119   1.909       .  S
C112        O122   1.265       .  A
C112        O113   1.263       .  A
C112        C509   1.485       .  S
O113       Al115   1.920       .  S
O114        C116   1.258       .  A
O114       Al115   1.889       .  S
Al115       O123   1.884       .  S
Al115       O125   1.917       .  S
Al115       O124   1.779       .  S
C116        O129   1.257       .  A
C116        C533   1.457       .  S
O117        C127   1.265       .  A
O117       Al119   1.911       .  S
O118        C131   1.268       .  A
O118       Al128   1.931       .  S
Al119       O132   1.880       .  S
Al119       O129   1.889       .  S
Al119       O124   1.780       .  S
O120        C127   1.266       .  A
O120       Al128   1.932       .  S
O121        C130   1.268       .  A
O121       Al128   1.944       .  S
O122       Al128   1.915       .  S
O123        C130   1.258       .  A
O124       Al128   1.779       .  S
O125        C126   1.264       .  A
C126        C658   1.495       .  S
C127        C485   1.494       .  S
C130        C562   1.491       .  S
C131        O132   1.258       .  A
C131        C917   1.466       .  S
O133        C148   1.258       .  A
O133       Al141   1.862       .  S
C134        O144   1.258       .  A
C134        O135   1.270       .  A
C134        C749   1.496       .  S
O135       Al137   1.950       .  S
O136        C138   1.257       .  A
O136       Al137   1.906       .  S
Al137       O145   1.922       .  S
Al137       O147   1.971       .  S
Al137       O146   1.788       .  S
C138        O151   1.260       .  A
C138        C586   1.483       .  S
O139        C149   1.263       .  A
O139       Al141   1.898       .  S
O140        C153   1.261       .  A
O140       Al150   1.918       .  S
Al141       O154   1.916       .  S
Al141       O151   1.925       .  S
Al141       O146   1.784       .  S
O142        C149   1.263       .  A
O142       Al150   1.899       .  S
O143        C152   1.256       .  A
O143       Al150   1.886       .  S
O144       Al150   1.865       .  S
O145        C152   1.264       .  A
O146       Al150   1.776       .  S
O147        C148   1.276       .  A
C148        C466   1.476       .  S
C149       C1018   1.460       .  S
C152        C442   1.487       .  S
C153        O154   1.262       .  A
C153        C418   1.482       .  S
O155        C170   1.262       .  A
O155       Al163   1.891       .  S
C156        O166   1.267       .  A
C156        O157   1.268       .  A
C156        C490   1.495       .  S
O157       Al159   1.919       .  S
O158        C160   1.260       .  A
O158       Al159   1.910       .  S
Al159       O167   1.931       .  S
Al159       O169   1.938       .  S
Al159       O168   1.782       .  S
C160        O173   1.264       .  A
C160        C677   1.496       .  S
O161        C171   1.258       .  A
O161       Al163   1.889       .  S
O162        C175   1.262       .  A
O162       Al172   1.913       .  S
Al163       O176   1.910       .  S
Al163       O173   1.922       .  S
Al163       O168   1.777       .  S
O164        C171   1.258       .  A
O164       Al172   1.888       .  S
O165        C174   1.256       .  A
O165       Al172   1.895       .  S
O166       Al172   1.929       .  S
O167        C174   1.262       .  A
O168       Al172   1.781       .  S
O169        C170   1.272       .  A
C170        C389   1.478       .  S
C171        C898   1.475       .  S
C174        C437   1.479       .  S
C175        O176   1.264       .  A
C175        C365   1.499       .  S
O177        C192   1.255       .  A
O177       Al185   1.865       .  S
C178        O188   1.259       .  A
C178        O179   1.269       .  A
C178        C629   1.475   1_565  S
O179       Al181   1.948       .  S
O180        C182   1.259       .  A
O180       Al181   1.895       .  S
Al181       O189   1.910       .  S
Al181       O191   1.945       .  S
Al181       O190   1.792       .  S
C182        O195   1.266       .  A
C182        C989   1.503       .  S
O183        C193   1.260       .  A
O183       Al185   1.901       .  S
O184        C197   1.267       .  A
O184       Al194   1.912       .  S
Al185       O198   1.928       .  S
Al185       O195   1.935       .  S
Al185       O190   1.779       .  S
O186        C193   1.256       .  A
O186       Al194   1.884       .  S
O187        C196   1.258       .  A
O187       Al194   1.892       .  S
O188       Al194   1.875       .  S
O189        C196   1.261       .  A
O190       Al194   1.782       .  S
O191        C192   1.268       .  A
C192        C413   1.478       .  S
C193        C845   1.463       .  S
C196        C346   1.487       .  S
C197        O198   1.268       .  A
C197        C322   1.486       .  S
O199        C214   1.255       .  A
O199       Al207   1.862       .  S
C200        O210   1.259       .  A
C200        O201   1.273       .  A
C200        C970   1.495   1_545  S
O201       Al203   1.965       .  S
O202        C204   1.257       .  A
O202       Al203   1.886       .  S
Al203       O211   1.904       .  S
Al203       O213   1.968       .  S
Al203       O212   1.782       .  S
C204        O217   1.266       .  A
C204        C514   1.496       .  S
O205        C215   1.257       .  A
O205       Al207   1.889       .  S
O206        C219   1.261       .  A
O206       Al216   1.897       .  S
Al207       O220   1.929       .  S
Al207       O217   1.931       .  S
Al207       O212   1.776       .  S
O208        C215   1.260       .  A
O208       Al216   1.902       .  S
O209        C218   1.260       .  A
O209       Al216   1.897       .  S
O210       Al216   1.870       .  S
O211        C218   1.261       .  A
O212       Al216   1.777       .  S
O213        C214   1.272       .  A
C214        C298   1.482       .  S
C215        C706   1.453       .  S
C218        C341   1.488       .  S
C219        O220   1.268       .  A
C219        C394   1.486       .  S
O221        C236   1.267       .  A
O221       Al229   1.907       .  S
C222        O232   1.268       .  A
C222        O223   1.268       .  A
C222        C730   1.497   1_655  S
O223       Al225   1.919       .  S
O224        C226   1.257       .  A
O224       Al225   1.899       .  S
Al225       O233   1.925       .  S
Al225       O235   1.932       .  S
Al225       O234   1.780       .  S
C226        O239   1.263       .  A
C226        C869   1.495       .  S
O227        C237   1.261       .  A
O227       Al229   1.904       .  S
O228        C241   1.262       .  A
O228       Al238   1.913       .  S
Al229       O242   1.907       .  S
Al229       O239   1.926       .  S
Al229       O234   1.780       .  S
O230        C237   1.255       .  A
O230       Al238   1.868       .  S
O231        C240   1.256       .  A
O231       Al238   1.890       .  S
O232       Al238   1.929       .  S
O233        C240   1.261       .  A
O234       Al238   1.780       .  S
O235        C236   1.273       .  A
C236        C370   1.480       .  S
C237        C538   1.473       .  S
C240        C269   1.480       .  S
C241        O242   1.263       .  A
C241        C293   1.494       .  S
O243        C258   1.265       .  A
O243       Al251   1.904       .  S
C244        O254   1.267       .  A
C244        O245   1.267       .  A
C244       C1114   1.499   1_455  S
O245       Al247   1.915       .  S
O246        C248   1.265       .  A
O246       Al247   1.932       .  S
Al247       O255   1.937       .  S
Al247       O257   1.932       .  S
Al247       O256   1.782       .  S
C248        O261   1.264       .  A
C248        C826   1.504       .  S
O249        C259   1.261       .  A
O249       Al251   1.906       .  S
O250        C263   1.263       .  A
O250       Al260   1.912       .  S
Al251       O264   1.910       .  S
Al251       O261   1.921       .  S
Al251       O256   1.776       .  S
O252        C259   1.255       .  A
O252       Al260   1.875       .  S
O253        C262   1.254       .  A
O253       Al260   1.878       .  S
O254       Al260   1.924       .  S
O255        C262   1.264       .  A
O256       Al260   1.777       .  S
O257        C258   1.270       .  A
C258        C317   1.482       .  S
C259        C605   1.473       .  S
C262        C274   1.479       .  S
C263        O264   1.263       .  A
C263        C461   1.498       .  S
C265        C266   1.413       .  A
C265        C270   1.400       .  A
C265        C279   1.444       .  S
C266        C271   1.488   1_655  S
C266        C267   1.402       .  A
C267        C268   1.400       .  A
C267        H286   1.085   1_655  S
C268        C269   1.415       .  A
C268        C280   1.444       .  S
C269        C270   1.404       .  A
C270        H285   1.085       .  S
C271        C272   1.404       .  A
C271        C276   1.412       .  A
C272        C273   1.399       .  A
C272        H287   1.085       .  S
C273        C274   1.413       .  A
C273        C277   1.445       .  S
C274        C275   1.405       .  A
C275        C276   1.402       .  A
C275        H288   1.085       .  S
C276        C278   1.444   1_455  S
C277        N281   1.157       .  T
C278        N282   1.157       .  T
C279        N284   1.157       .  T
C280        N283   1.157       .  T
C289        C290   1.410       .  A
C289        C294   1.401       .  A
C289        C303   1.445       .  S
C290        C295   1.490       .  S
C290        C291   1.402       .  A
C291        C292   1.409       .  A
C291        H310   1.084       .  S
C292        C293   1.420       .  A
C292        C304   1.444       .  S
C293        C294   1.406       .  A
C294        H309   1.084       .  S
C295        C296   1.405       .  A
C295        C300   1.409       .  A
C296        C297   1.407       .  A
C296        H311   1.085       .  S
C297        C298   1.412       .  A
C297        C301   1.444       .  S
C298        C299   1.407       .  A
C299        C300   1.401       .  A
C299        H312   1.085       .  S
C300        C302   1.444       .  S
C301        N305   1.157       .  T
C302        N306   1.157       .  T
C303        N308   1.157       .  T
C304        N307   1.157       .  T
C313        C314   1.414       .  A
C313        C318   1.411       .  A
C313        C327   1.443       .  S
C314        C319   1.494       .  S
C314        C315   1.402       .  A
C315        C316   1.397       .  A
C315        H334   1.085       .  S
C316        C317   1.413       .  A
C316        C328   1.446       .  S
C317        C318   1.406       .  A
C318        H333   1.084       .  S
C319        C320   1.405       .  A
C319        C324   1.414       .  A
C320        C321   1.404       .  A
C320        H335   1.085       .  S
C321        C322   1.414       .  A
C321        C325   1.444       .  S
C322        C323   1.405       .  A
C323        C324   1.405       .  A
C323        H336   1.085       .  S
C324        C326   1.444       .  S
C325        N329   1.157       .  T
C326        N330   1.157       .  T
C327        N332   1.157       .  T
C328        N331   1.157       .  T
C337        C338   1.410   1_565  A
C337        C342   1.395   1_565  A
C337        C351   1.445       .  S
C338        C343   1.489   1_545  S
C338        C339   1.406       .  A
C339        C340   1.404       .  A
C339        H358   1.085       .  S
C340        C341   1.416       .  A
C340        C352   1.444       .  S
C341        C342   1.408       .  A
C342        H357   1.085   1_545  S
C343        C344   1.407       .  A
C343        C348   1.410   1_565  A
C344        C345   1.403       .  A
C344        H359   1.085       .  S
C345        C346   1.414       .  A
C345        C349   1.443       .  S
C346        C347   1.409       .  A
C347        C348   1.396   1_565  A
C347        H360   1.085   1_565  S
C348        C350   1.445       .  S
C349        N353   1.157       .  T
C350        N354   1.157       .  T
C351        N356   1.157       .  T
C352        N355   1.157       .  T
C361        C362   1.409       .  A
C361        C366   1.403       .  A
C361        C375   1.444       .  S
C362        C367   1.487       .  S
C362        C363   1.400       .  A
C363        C364   1.404       .  A
C363        H382   1.085       .  S
C364        C365   1.422       .  A
C364        C376   1.444       .  S
C365        C366   1.409       .  A
C366        H381   1.084       .  S
C367        C368   1.398       .  A
C367        C372   1.412       .  A
C368        C369   1.396       .  A
C368        H383   1.086       .  S
C369        C370   1.415       .  A
C369        C373   1.444       .  S
C370        C371   1.406       .  A
C371        C372   1.409       .  A
C371        H384   1.084       .  S
C372        C374   1.442       .  S
C373        N377   1.157       .  T
C374        N378   1.157       .  T
C375        N380   1.157       .  T
C376        N379   1.158       .  T
C385        C386   1.411       .  A
C385        C390   1.409       .  A
C385        C399   1.442       .  S
C386        C391   1.484       .  S
C386        C387   1.397       .  A
C387        C388   1.394       .  A
C387        H406   1.085       .  S
C388        C389   1.415       .  A
C388        C400   1.444       .  S
C389        C390   1.406       .  A
C390        H405   1.084       .  S
C391        C392   1.402       .  A
C391        C396   1.411       .  A
C392        C393   1.403       .  A
C392        H407   1.085       .  S
C393        C394   1.418       .  A
C393        C397   1.444       .  S
C394        C395   1.405       .  A
C395        C396   1.400       .  A
C395        H408   1.085       .  S
C396        C398   1.445       .  S
C397        N401   1.157       .  T
C398        N402   1.157       .  T
C399        N404   1.157       .  T
C400        N403   1.157       .  T
C409        C410   1.413       .  A
C409        C414   1.399       .  A
C409        C423   1.444       .  S
C410        C415   1.495       .  S
C410        C411   1.408       .  A
C411        C412   1.404       .  A
C411        H430   1.084       .  S
C412        C413   1.412       .  A
C412        C424   1.445       .  S
C413        C414   1.404       .  A
C414        H429   1.085       .  S
C415        C416   1.408       .  A
C415        C420   1.414       .  A
C416        C417   1.407       .  A
C416        H431   1.085       .  S
C417        C418   1.412       .  A
C417        C421   1.441       .  S
C418        C419   1.403       .  A
C419        C420   1.396       .  A
C419        H432   1.085       .  S
C420        C422   1.445       .  S
C421        N425   1.157       .  T
C422        N426   1.157       .  T
C423        N428   1.157       .  T
C424        N427   1.157       .  T
C433        C434   1.418       .  A
C433        C438   1.403       .  A
C433        C447   1.445       .  S
C434        C439   1.500       .  S
C434        C435   1.407       .  A
C435        C436   1.403       .  A
C435        H454   1.084       .  S
C436        C437   1.411       .  A
C436        C448   1.444       .  S
C437        C438   1.401       .  A
C438        H453   1.085       .  S
C439        C440   1.404       .  A
C439        C444   1.417       .  A
C440        C441   1.398       .  A
C440        H455   1.085       .  S
C441        C442   1.415       .  A
C441        C445   1.444       .  S
C442        C443   1.405       .  A
C443        C444   1.408       .  A
C443        H456   1.085       .  S
C444        C446   1.443       .  S
C445        N449   1.157       .  T
C446        N450   1.157       .  T
C447        N452   1.157       .  T
C448        N451   1.157       .  T
C457        C458   1.407       .  A
C457        C462   1.403       .  A
C457        C471   1.444       .  S
C458        C463   1.492       .  S
C458        C459   1.404       .  A
C459        C460   1.404       .  A
C459        H478   1.085       .  S
C460        C461   1.418       .  A
C460        C472   1.444       .  S
C461        C462   1.412       .  A
C462        H477   1.084       .  S
C463        C464   1.403       .  A
C463        C468   1.415       .  A
C464        C465   1.403       .  A
C464        H479   1.085       .  S
C465        C466   1.412       .  A
C465        C469   1.443       .  S
C466        C467   1.403       .  A
C467        C468   1.404       .  A
C467        H480   1.084       .  S
C468        C470   1.445       .  S
C469        N473   1.157       .  T
C470        N474   1.157       .  T
C471        N476   1.157       .  T
C472        N475   1.157       .  T
C481        C482   1.417       .  A
C481        C486   1.407   1_554  A
C481        C495   1.444       .  S
C482        C487   1.508       .  S
C482        C483   1.407   1_554  A
C483        C484   1.405       .  A
C483        H502   1.084       .  S
C484        C485   1.416       .  A
C484        C496   1.444       .  S
C485        C486   1.405       .  A
C486        H501   1.084       .  S
C487        C488   1.408       .  A
C487        C492   1.417       .  A
C488        C489   1.407       .  A
C488        H503   1.084       .  S
C489        C490   1.416       .  A
C489        C493   1.444       .  S
C490        C491   1.406       .  A
C491        C492   1.406       .  A
C491        H504   1.085       .  S
C492        C494   1.444   1_554  S
C493        N497   1.157       .  T
C494        N498   1.157       .  T
C495        N500   1.157       .  T
C496        N499   1.157       .  T
C505        C506   1.410       .  A
C505        C510   1.406       .  A
C505        C519   1.443       .  S
C506        C511   1.488       .  S
C506        C507   1.401       .  A
C507        C508   1.400   1_655  A
C507        H526   1.085       .  S
C508        C509   1.414       .  A
C508        C520   1.442       .  S
C509        C510   1.408   1_455  A
C510        H525   1.084       .  S
C511        C512   1.401       .  A
C511        C516   1.410       .  A
C512        C513   1.403   1_556  A
C512        H527   1.085       .  S
C513        C514   1.422       .  A
C513        C517   1.445       .  S
C514        C515   1.408       .  A
C515        C516   1.402   1_554  A
C515        H528   1.084       .  S
C516        C518   1.444       .  S
C517        N521   1.158       .  T
C518        N522   1.157       .  T
C519        N524   1.157       .  T
C520        N523   1.156       .  T
C529        C530   1.404       .  A
C529        C534   1.391       .  A
C529        C543   1.445       .  S
C530        C535   1.464   1_556  S
C530        C531   1.403       .  A
C531        C532   1.397       .  A
C531        H550   1.085   1_556  S
C532        C533   1.405       .  A
C532        C544   1.444       .  S
C533        C534   1.405       .  A
C534        H549   1.086       .  S
C535        C536   1.399   1_454  A
C535        C540   1.403       .  A
C536        C537   1.396   1_556  A
C536        H551   1.085       .  S
C537        C538   1.413       .  A
C537        C541   1.444   1_554  S
C538        C539   1.408   1_655  A
C539        C540   1.392       .  A
C539        H552   1.085       .  S
C540        C542   1.445       .  S
C541        N545   1.157       .  T
C542        N546   1.157       .  T
C543        N548   1.157       .  T
C544        N547   1.157       .  T
C553        C554   1.413   1_455  A
C553        C558   1.405   1_455  A
C553        C567   1.444       .  S
C554        C559   1.492   1_655  S
C554        C555   1.404       .  A
C555        C556   1.402       .  A
C555        H574   1.085       .  S
C556        C557   1.411       .  A
C556        C568   1.444       .  S
C557        C558   1.405       .  A
C558        H573   1.085       .  S
C559        C560   1.403       .  A
C559        C564   1.411       .  A
C560        C561   1.403       .  A
C560        H575   1.085       .  S
C561        C562   1.418       .  A
C561        C565   1.445       .  S
C562        C563   1.407       .  A
C563        C564   1.405       .  A
C563        H576   1.084       .  S
C564        C566   1.443   1_455  S
C565        N569   1.158       .  T
C566        N570   1.157       .  T
C567        N572   1.157       .  T
C568        N571   1.157       .  T
C577        C578   1.409       .  A
C577        C582   1.403       .  A
C577        C591   1.444       .  S
C578        C583   1.493       .  S
C578        C579   1.402       .  A
C579        C580   1.407       .  A
C579        H598   1.085       .  S
C580        C581   1.422       .  A
C580        C592   1.443   1_455  S
C581        C582   1.411       .  A
C582        H597   1.084       .  S
C583        C584   1.405       .  A
C583        C588   1.412       .  A
C584        C585   1.406       .  A
C584        H599   1.084       .  S
C585        C586   1.412       .  A
C585        C589   1.444       .  S
C586        C587   1.404       .  A
C587        C588   1.403       .  A
C587        H600   1.084       .  S
C588        C590   1.444       .  S
C589        N593   1.157       .  T
C590        N594   1.157       .  T
C591        N596   1.157       .  T
C592        N595   1.157       .  T
C601        C602   1.408       .  A
C601        C606   1.398       .  A
C601        C615   1.443       .  S
C602        C607   1.471       .  S
C602        C603   1.398       .  A
C603        C604   1.391       .  A
C603        H622   1.086   1_455  S
C604        C605   1.416       .  A
C604        C616   1.445   1_455  S
C605        C606   1.406       .  A
C606        H621   1.085       .  S
C607        C608   1.398   1_455  A
C607        C612   1.410       .  A
C608        C609   1.389       .  A
C608        H623   1.086       .  S
C609        C610   1.414       .  A
C609        C613   1.445       .  S
C610        C611   1.407   1_655  A
C611        C612   1.400       .  A
C611        H624   1.085       .  S
C612        C614   1.444       .  S
C613        N617   1.157       .  T
C614        N618   1.157       .  T
C615        N620   1.157       .  T
C616        N619   1.157       .  T
C625        C626   1.413       .  A
C625        C630   1.408       .  A
C625        C639   1.442       .  S
C626        C631   1.490       .  S
C626        C627   1.403       .  A
C627        C628   1.397       .  A
C627        H646   1.085       .  S
C628        C629   1.410       .  A
C628        C640   1.446   1_545  S
C629        C630   1.403       .  A
C630        H645   1.084       .  S
C631        C632   1.405       .  A
C631        C636   1.407       .  A
C632        C633   1.408       .  A
C632        H647   1.085       .  S
C633        C634   1.417       .  A
C633        C637   1.443       .  S
C634        C635   1.409       .  A
C635        C636   1.398       .  A
C635        H648   1.084       .  S
C636        C638   1.444       .  S
C637        N641   1.157       .  T
C638        N642   1.157       .  T
C639        N644   1.157       .  T
C640        N643   1.157       .  T
C649        C650   1.412       .  A
C649        C654   1.404       .  A
C649        C663   1.444       .  S
C650        C655   1.491       .  S
C650        C651   1.405       .  A
C651        C652   1.402       .  A
C651        H670   1.085       .  S
C652        C653   1.409       .  A
C652        C664   1.444       .  S
C653        C654   1.403       .  A
C654        H669   1.085       .  S
C655        C656   1.404       .  A
C655        C660   1.408       .  A
C656        C657   1.402       .  A
C656        H671   1.085       .  S
C657        C658   1.418       .  A
C657        C661   1.444       .  S
C658        C659   1.411       .  A
C659        C660   1.403       .  A
C659        H672   1.085       .  S
C660        C662   1.444       .  S
C661        N665   1.157       .  T
C662        N666   1.157       .  T
C663        N668   1.157       .  T
C664        N667   1.157       .  T
C673        C674   1.415       .  A
C673        C678   1.407   1_556  A
C673        C687   1.443       .  S
C674        C679   1.500       .  S
C674        C675   1.403   1_556  A
C675        C676   1.401       .  A
C675        H694   1.085       .  S
C676        C677   1.421       .  A
C676        C688   1.446       .  S
C677        C678   1.406       .  A
C678        H693   1.084   1_554  S
C679        C680   1.403       .  A
C679        C684   1.415       .  A
C680        C681   1.402       .  A
C680        H695   1.084       .  S
C681        C682   1.421       .  A
C681        C685   1.444       .  S
C682        C683   1.408       .  A
C683        C684   1.405       .  A
C683        H696   1.084   1_545  S
C684        C686   1.444       .  S
C685        N689   1.157       .  T
C686        N690   1.157       .  T
C687        N692   1.157       .  T
C688        N691   1.158       .  T
C697        C698   1.405       .  A
C697        C702   1.395       .  A
C697        C711   1.445       .  S
C698        C703   1.475       .  S
C698        C699   1.402   1_545  A
C699        C700   1.397       .  A
C699        H718   1.085   1_556  S
C700        C701   1.414       .  A
C700        C712   1.444       .  S
C701        C702   1.411   1_565  A
C702        H717   1.085       .  S
C703        C704   1.402   1_556  A
C703        C708   1.412       .  A
C704        C705   1.395       .  A
C704        H719   1.085       .  S
C705        C706   1.407       .  A
C705        C709   1.445       .  S
C706        C707   1.397       .  A
C707        C708   1.395   1_554  A
C707        H720   1.086       .  S
C708        C710   1.444   1_545  S
C709        N713   1.157       .  T
C710        N714   1.157       .  T
C711        N716   1.157       .  T
C712        N715   1.157       .  T
C721        C722   1.415       .  A
C721        C726   1.406   1_554  A
C721        C735   1.443       .  S
C722        C727   1.499       .  S
C722        C723   1.407       .  A
C723        C724   1.404   1_554  A
C723        H742   1.084       .  S
C724        C725   1.411       .  A
C724        C736   1.444       .  S
C725        C726   1.403       .  A
C726        H741   1.085       .  S
C727        C728   1.404       .  A
C727        C732   1.412       .  A
C728        C729   1.404       .  A
C728        H743   1.085       .  S
C729        C730   1.417       .  A
C729        C733   1.443   1_455  S
C730        C731   1.410       .  A
C731        C732   1.406       .  A
C731        H744   1.085       .  S
C732        C734   1.444       .  S
C733        N737   1.157       .  T
C734        N738   1.157       .  T
C735        N740   1.157       .  T
C736        N739   1.157       .  T
C745        C746   1.408       .  A
C745        C750   1.395       .  A
C745        C759   1.445       .  S
C746        C751   1.490       .  S
C746        C747   1.406       .  A
C747        C748   1.410       .  A
C747        H766   1.085       .  S
C748        C749   1.417       .  A
C748        C760   1.443       .  S
C749        C750   1.410       .  A
C750        H765   1.085       .  S
C751        C752   1.399       .  A
C751        C756   1.411       .  A
C752        C753   1.401       .  A
C752        H767   1.085       .  S
C753        C754   1.423       .  A
C753        C757   1.445       .  S
C754        C755   1.409       .  A
C755        C756   1.405       .  A
C755        H768   1.084       .  S
C756        C758   1.443       .  S
C757        N761   1.157       .  T
C758        N762   1.157       .  T
C759        N764   1.157       .  T
C760        N763   1.157       .  T
C769        C770   1.410       .  A
C769        C774   1.407       .  A
C769        C783   1.443       .  S
C770        C775   1.498       .  S
C770        C771   1.404       .  A
C771        C772   1.404       .  A
C771        H790   1.085       .  S
C772        C773   1.420       .  A
C772        C784   1.445       .  S
C773        C774   1.411       .  A
C774        H789   1.084       .  S
C775        C776   1.404       .  A
C775        C780   1.414       .  A
C776        C777   1.404       .  A
C776        H791   1.085       .  S
C777        C778   1.413       .  A
C777        C781   1.444       .  S
C778        C779   1.403       .  A
C779        C780   1.407       .  A
C779        H792   1.085       .  S
C780        C782   1.443       .  S
C781        N785   1.157       .  T
C782        N786   1.157       .  T
C783        N788   1.157       .  T
C784        N787   1.158       .  T
C793        C794   1.412       .  A
C793        C798   1.405       .  A
C793        C807   1.444   1_545  S
C794        C799   1.492   1_545  S
C794        C795   1.403       .  A
C795        C796   1.402       .  A
C795        H814   1.085       .  S
C796        C797   1.414       .  A
C796        C808   1.444       .  S
C797        C798   1.407       .  A
C798        H813   1.085       .  S
C799        C800   1.405       .  A
C799        C804   1.411       .  A
C800        C801   1.403       .  A
C800        H815   1.084       .  S
C801        C802   1.413       .  A
C801        C805   1.445       .  S
C802        C803   1.406       .  A
C803        C804   1.403       .  A
C803        H816   1.085       .  S
C804        C806   1.443   1_565  S
C805        N809   1.157       .  T
C806        N810   1.157       .  T
C807        N812   1.157       .  T
C808        N811   1.157       .  T
C817        C818   1.411       .  A
C817        C822   1.403       .  A
C817        C831   1.444       .  S
C818        C823   1.506       .  S
C818        C819   1.409       .  A
C819        C820   1.413       .  A
C819        H838   1.085       .  S
C820        C821   1.418       .  A
C820        C832   1.443   1_565  S
C821        C822   1.410       .  A
C822        H837   1.084       .  S
C823        C824   1.407       .  A
C823        C828   1.412       .  A
C824        C825   1.409       .  A
C824        H839   1.085       .  S
C825        C826   1.418       .  A
C825        C829   1.443       .  S
C826        C827   1.410       .  A
C827        C828   1.407       .  A
C827        H840   1.085       .  S
C828        C830   1.444       .  S
C829        N833   1.157       .  T
C830        N834   1.157       .  T
C831        N836   1.157       .  T
C832        N835   1.157       .  T
C841        C842   1.413       .  A
C841        C846   1.400       .  A
C841        C855   1.444       .  S
C842        C847   1.481       .  S
C842        C843   1.403       .  A
C843        C844   1.393       .  A
C843        H862   1.085   1_565  S
C844        C845   1.409       .  A
C844        C856   1.445   1_565  S
C845        C846   1.402       .  A
C846        H861   1.085       .  S
C847        C848   1.399       .  A
C847        C852   1.413       .  A
C848        C849   1.394       .  A
C848        H863   1.085       .  S
C849        C850   1.420   1_565  A
C849        C853   1.445       .  S
C850        C851   1.402       .  A
C851        C852   1.397   1_545  A
C851        H864   1.085       .  S
C852        C854   1.444   1_565  S
C853        N857   1.157       .  T
C854        N858   1.157       .  T
C855        N860   1.157       .  T
C856        N859   1.157       .  T
C865        C866   1.413       .  A
C865        C870   1.408       .  A
C865        C879   1.443       .  S
C866        C871   1.495       .  S
C866        C867   1.400   1_556  A
C867        C868   1.398       .  A
C867        H886   1.085       .  S
C868        C869   1.422       .  A
C868        C880   1.446       .  S
C869        C870   1.407   1_554  A
C870        H885   1.084       .  S
C871        C872   1.401       .  A
C871        C876   1.413       .  A
C872        C873   1.402       .  A
C872        H887   1.085       .  S
C873        C874   1.424       .  A
C873        C877   1.445       .  S
C874        C875   1.407       .  A
C875        C876   1.404       .  A
C875        H888   1.085       .  S
C876        C878   1.443       .  S
C877        N881   1.158       .  T
C878        N882   1.157       .  T
C879        N884   1.157       .  T
C880        N883   1.157       .  T
C889        C890   1.410       .  A
C889        C894   1.389       .  A
C889        C903   1.445       .  S
C890        C895   1.477   1_556  S
C890        C891   1.405   1_556  A
C891        C892   1.400   1_554  A
C891        H910   1.088       .  S
C892        C893   1.411       .  A
C892        C904   1.444       .  S
C893        C894   1.403       .  A
C894        H909   1.088       .  S
C895        C896   1.399       .  A
C895        C900   1.411       .  A
C896        C897   1.391       .  A
C896        H911   1.086       .  S
C897        C898   1.417       .  A
C897        C901   1.445       .  S
C898        C899   1.405       .  A
C899        C900   1.399       .  A
C899        H912   1.086       .  S
C900        C902   1.444       .  S
C901        N905   1.157       .  T
C902        N906   1.157   1_554  T
C903        N908   1.157       .  T
C904        N907   1.157   1_556  T
C913        C914   1.412       .  A
C913        C918   1.404       .  A
C913        C927   1.443       .  S
C914        C919   1.489       .  S
C914        C915   1.404       .  A
C915        C916   1.398       .  A
C915        H934   1.085       .  S
C916        C917   1.409       .  A
C916        C928   1.445       .  S
C917        C918   1.404       .  A
C918        H933   1.085       .  S
C919        C920   1.405       .  A
C919        C924   1.407       .  A
C920        C921   1.405       .  A
C920        H935   1.085       .  S
C921        C922   1.419       .  A
C921        C925   1.445       .  S
C922        C923   1.410       .  A
C923        C924   1.399       .  A
C923        H936   1.084       .  S
C924        C926   1.444       .  S
C925        N929   1.158       .  T
C926        N930   1.157       .  T
C927        N932   1.157       .  T
C928        N931   1.157       .  T
C937        C938   1.411       .  A
C937        C942   1.403       .  A
C937        C951   1.444       .  S
C938        C943   1.494       .  S
C938        C939   1.404       .  A
C939        C940   1.404       .  A
C939        H958   1.085       .  S
C940        C941   1.419       .  A
C940        C952   1.445       .  S
C941        C942   1.408       .  A
C942        H957   1.084       .  S
C943        C944   1.404       .  A
C943        C948   1.415       .  A
C944        C945   1.398       .  A
C944        H959   1.085       .  S
C945        C946   1.409       .  A
C945        C949   1.445       .  S
C946        C947   1.405       .  A
C947        C948   1.408       .  A
C947        H960   1.085       .  S
C948        C950   1.444       .  S
C949        N953   1.157       .  T
C950        N954   1.157       .  T
C951        N956   1.157       .  T
C952        N955   1.157       .  T
C961        C962   1.411       .  A
C961        C966   1.403   1_554  A
C961        C975   1.443       .  S
C962        C967   1.493       .  S
C962        C963   1.402   1_554  A
C963        C964   1.406       .  A
C963        H982   1.085       .  S
C964        C965   1.419       .  A
C964        C976   1.444       .  S
C965        C966   1.407       .  A
C966        H981   1.085       .  S
C967        C968   1.407       .  A
C967        C972   1.410       .  A
C968        C969   1.411       .  A
C968        H983   1.086       .  S
C969        C970   1.416       .  A
C969        C973   1.443       .  S
C970        C971   1.408       .  A
C971        C972   1.397       .  A
C971        H984   1.087       .  S
C972        C974   1.445       .  S
C973        N977   1.157       .  T
C974        N978   1.157   1_554  T
C975        N980   1.157       .  T
C976        N979   1.157       .  T
C985        C986   1.413       .  A
C985        C990   1.406       .  A
C985        C999   1.444       .  S
C986        C991   1.502       .  S
C986        C987   1.405       .  A
C987        C988   1.406       .  A
C987       H1006   1.085       .  S
C988        C989   1.419       .  A
C988       C1000   1.443       .  S
C989        C990   1.411       .  A
C990       H1005   1.084       .  S
C991        C992   1.405       .  A
C991        C996   1.414       .  A
C992        C993   1.407       .  A
C992       H1007   1.086       .  S
C993        C994   1.418       .  A
C993        C997   1.443       .  S
C994        C995   1.410       .  A
C995        C996   1.407       .  A
C995       H1008   1.086       .  S
C996        C998   1.444       .  S
C997       N1001   1.157       .  T
C998       N1002   1.157       .  T
C999       N1004   1.157       .  T
C1000      N1003   1.157       .  T
C1009      C1010   1.403       .  A
C1009      C1014   1.392       .  A
C1009      C1023   1.445       .  S
C1010      C1015   1.476       .  S
C1010      C1011   1.407       .  A
C1011      C1012   1.401       .  A
C1011      H1030   1.085       .  S
C1012      C1013   1.408       .  A
C1012      C1024   1.443       .  S
C1013      C1014   1.409       .  A
C1014      H1029   1.085       .  S
C1015      C1016   1.403       .  A
C1015      C1020   1.409       .  A
C1016      C1017   1.398       .  A
C1016      H1031   1.085       .  S
C1017      C1018   1.409       .  A
C1017      C1021   1.444       .  S
C1018      C1019   1.401       .  A
C1019      C1020   1.394       .  A
C1019      H1032   1.086       .  S
C1020      C1022   1.444       .  S
C1021      N1025   1.157       .  T
C1022      N1026   1.157       .  T
C1023      N1028   1.157       .  T
C1024      N1027   1.157       .  T
C1033      C1034   1.408       .  A
C1033      C1038   1.399       .  A
C1033      C1047   1.445       .  S
C1034      C1039   1.499       .  S
C1034      C1035   1.410       .  A
C1035      C1036   1.417       .  A
C1035      H1054   1.084       .  S
C1036      C1037   1.415       .  A
C1036      C1048   1.443       .  S
C1037      C1038   1.408       .  A
C1038      H1053   1.085       .  S
C1039      C1040   1.404       .  A
C1039      C1044   1.411       .  A
C1040      C1041   1.409       .  A
C1040      H1055   1.085       .  S
C1041      C1042   1.420       .  A
C1041      C1045   1.444       .  S
C1042      C1043   1.410       .  A
C1043      C1044   1.407       .  A
C1043      H1056   1.084       .  S
C1044      C1046   1.444       .  S
C1045      N1049   1.157       .  T
C1046      N1050   1.157       .  T
C1047      N1052   1.157       .  T
C1048      N1051   1.157       .  T
C1057      C1058   1.411       .  A
C1057      C1062   1.404       .  A
C1057      C1071   1.444       .  S
C1058      C1063   1.490       .  S
C1058      C1059   1.403       .  A
C1059      C1060   1.399       .  A
C1059      H1078   1.085       .  S
C1060      C1061   1.416       .  A
C1060      C1072   1.445       .  S
C1061      C1062   1.408       .  A
C1062      H1077   1.085       .  S
C1063      C1064   1.406       .  A
C1063      C1068   1.413       .  A
C1064      C1065   1.400       .  A
C1064      H1079   1.085       .  S
C1065      C1066   1.410       .  A
C1065      C1069   1.445       .  S
C1066      C1067   1.404       .  A
C1067      C1068   1.402       .  A
C1067      H1080   1.085       .  S
C1068      C1070   1.444       .  S
C1069      N1073   1.157       .  T
C1070      N1074   1.157       .  T
C1071      N1076   1.157       .  T
C1072      N1075   1.157       .  T
C1081      C1082   1.414       .  A
C1081      C1086   1.410       .  A
C1081      C1095   1.443       .  S
C1082      C1087   1.493       .  S
C1082      C1083   1.401       .  A
C1083      C1084   1.397       .  A
C1083      H1102   1.085       .  S
C1084      C1085   1.412       .  A
C1084      C1096   1.443       .  S
C1085      C1086   1.406       .  A
C1086      H1101   1.085       .  S
C1087      C1088   1.403       .  A
C1087      C1092   1.410       .  A
C1088      C1089   1.405       .  A
C1088      H1103   1.085       .  S
C1089      C1090   1.419       .  A
C1089      C1093   1.444       .  S
C1090      C1091   1.410       .  A
C1091      C1092   1.404       .  A
C1091      H1104   1.084       .  S
C1092      C1094   1.444       .  S
C1093      N1097   1.157       .  T
C1094      N1098   1.157       .  T
C1095      N1100   1.157       .  T
C1096      N1099   1.157       .  T
C1105      C1106   1.413       .  A
C1105      C1110   1.409       .  A
C1105      C1119   1.442       .  S
C1106      C1111   1.495       .  S
C1106      C1107   1.399       .  A
C1107      C1108   1.399       .  A
C1107      H1126   1.085       .  S
C1108      C1109   1.425       .  A
C1108      C1120   1.446       .  S
C1109      C1110   1.408       .  A
C1110      H1125   1.084       .  S
C1111      C1112   1.406       .  A
C1111      C1116   1.411       .  A
C1112      C1113   1.406       .  A
C1112      H1127   1.085       .  S
C1113      C1114   1.417       .  A
C1113      C1117   1.443   1_655  S
C1114      C1115   1.411       .  A
C1115      C1116   1.403       .  A
C1115      H1128   1.084       .  S
C1116      C1118   1.445       .  S
C1117      N1121   1.157       .  T
C1118      N1122   1.157       .  T
C1119      N1124   1.157       .  T
C1120      N1123   1.158       .  T
