geometry optimzed in LAMMPS
_audit_creation_date              2020-12-01 
_audit_creation_method            'lammps2cif' 
_symmetry_space_group_name_H-M    'P1' 
_symmetry_Int_Tables_number       1 
_symmetry_cell_setting            triclinic 
loop_ 
_symmetry_equiv_pos_as_xyz 
  x,y,z 
_cell_length_a                    48.73092442 
_cell_length_b                    48.23943220402665 
_cell_length_c                    28.21683075073806 
_cell_angle_alpha                 89.8232041051148 
_cell_angle_beta                  89.6887234565824 
_cell_angle_gamma                 89.80715688735438 
loop_ 
_atom_site_label 
_atom_site_type_symbol 
_atom_site_fract_x 
_atom_site_fract_y 
_atom_site_fract_z 
_atom_site_charge 
O1          O  0.60290684  0.68088888  0.89491027    -0.81600
C2          C  0.57044628  0.71987570  0.07443171     0.97700
O3          O  0.59488301  0.71361424  0.06310753    -0.70800
O4          O  0.60757608  0.66383167  0.03256316    -0.74300
Al5        Al  0.61141182  0.69988437  0.00517067     1.49000
C6          C  0.60800037  0.64244882  0.00734679     0.93000
O7          O  0.54569488  0.65689176  0.97493685    -0.80600
O8          O  0.55356982  0.73041874  0.91032689    -0.74100
Al9        Al  0.57446059  0.66938091  0.93558049     1.90100
O10         O  0.52424282  0.69745873  0.97660731    -0.73200
O11         O  0.57938586  0.75550970  0.98169188    -0.73000
O12         O  0.55202603  0.72191289  0.04358964    -0.78700
O13         O  0.61986202  0.73556919  0.98335542    -0.76900
O14         O  0.58019542  0.69815419  0.97331115    -1.13000
O15         O  0.63363000  0.68659581  0.95161126    -0.72200
C16         C  0.62755772  0.68327367  0.90805326     0.98500
C17         C  0.52433896  0.67120547  0.98265677     0.94900
Al18       Al  0.55444930  0.72426895  0.97758569     1.55600
O19         O  0.59853615  0.64335361  0.96599882    -0.76900
C20         C  0.60530022  0.75702836  0.98093209     0.99000
C21         C  0.54583699  0.71177615  0.88228957     0.93900
O22         O  0.54886850  0.68666774  0.89329422    -0.82200
O23         O  0.70394425  0.57370594  0.65515712    -0.81600
C24         C  0.74312004  0.53578118  0.47950934     0.97700
O25         O  0.73787371  0.56106909  0.48797023    -0.70800
O26         O  0.68892995  0.57474877  0.51870797    -0.74300
Al27       Al  0.72432022  0.57948844  0.54475804     1.49000
C28         C  0.66724801  0.57275404  0.54254314     0.93000
O29         O  0.68432340  0.51176849  0.58266655    -0.80600
O30         O  0.75682222  0.52483846  0.64490144    -0.74100
Al31       Al  0.69486672  0.54292906  0.61800225     1.90100
O32         O  0.72516336  0.49184238  0.58408125    -0.73200
O33         O  0.78035633  0.54920512  0.56823262    -0.73000
O34         O  0.74620678  0.51858958  0.51265293    -0.78700
O35         O  0.75949472  0.58935737  0.56412363    -0.76900
O36         O  0.72334966  0.54881117  0.57990782    -1.13000
O37         O  0.71079607  0.60321432  0.59609841    -0.72200
C38         C  0.70658494  0.59820206  0.63991480     0.98500
C39         C  0.69934925  0.49058558  0.57776274     0.94900
Al40       Al  0.75008015  0.52341030  0.57778468     1.55600
O41         O  0.66797315  0.56366367  0.58421394    -0.76900
C42         C  0.78119786  0.57530604  0.56404153     0.99000
C43         C  0.73826194  0.51740469  0.67359932     0.93900
O44         O  0.71338939  0.52044007  0.66292495    -0.82200
O45         O  0.53521582  0.27572470  0.38716643    -0.81600
C46         C  0.56666100  0.25211725  0.56720382     0.97700
O47         O  0.54599352  0.24980567  0.54088408    -0.70800
O48         O  0.51321616  0.26740069  0.47309814    -0.74300
Al49       Al  0.54508137  0.24274744  0.47586304     1.49000
C50         C  0.51166337  0.29363319  0.47585598     0.93000
O51         O  0.58320359  0.32473826  0.45153616    -0.80600
O52         O  0.62192630  0.27977308  0.42945540    -0.74100
Al53       Al  0.56041943  0.29669822  0.42465649     1.90100
O54         O  0.60193952  0.30428463  0.51220989    -0.73200
O55         O  0.61036099  0.23141900  0.46816543    -0.73000
O56         O  0.59048178  0.25638477  0.55020906    -0.78700
O57         O  0.57070097  0.21253932  0.48419569    -0.76900
O58         O  0.56984180  0.26906559  0.46305790    -1.13000
O59         O  0.54165171  0.23279115  0.41077070    -0.72200
C60         C  0.53232163  0.24998510  0.38110588     0.98500
C61         C  0.59699979  0.32590140  0.48900364     0.94900
Al62       Al  0.60333146  0.26797313  0.48788023     1.55600
O63         O  0.53223993  0.30851106  0.46643004    -0.76900
C64         C  0.59635665  0.21060328  0.47928053     0.99000
C65         C  0.61298406  0.28405190  0.38773871     0.93900
O66         O  0.58765353  0.28711284  0.38020589    -0.82200
O67         O  0.72656136  0.42442131  0.17301386    -0.81600
C68         C  0.74545563  0.42157345  0.97736717     0.97700
O69         O  0.76147341  0.43295462  0.00656709    -0.70800
O70         O  0.73119118  0.46615514  0.05705974    -0.74300
Al71       Al  0.75721540  0.43864127  0.07361381     1.49000
C72         C  0.70913495  0.47248273  0.07782478     0.93000
O73         O  0.67602529  0.41135149  0.07430149    -0.80600
O74         O  0.73637890  0.35882606  0.10397989    -0.74100
Al75       Al  0.70348704  0.41778552  0.12117587     1.90100
O76         O  0.69510196  0.37419042  0.04492171    -0.73200
O77         O  0.77225175  0.38075989  0.04153397    -0.73000
O78         O  0.72987992  0.40190915  0.99011664    -0.78700
O79         O  0.78714592  0.41367919  0.08789218    -0.76900
O80         O  0.73144691  0.41269129  0.08133227    -1.13000
O81         O  0.75757902  0.45063701  0.13881553    -0.72200
C82         C  0.74555491  0.44186693  0.17567733     0.98500
C83         C  0.67406406  0.38872741  0.05242249     0.94900
Al84       Al  0.73339715  0.38153793  0.04784888     1.55600
O85         O  0.69870528  0.45661677  0.10860212    -0.76900
C86         C  0.79174211  0.39272128  0.06218541     0.99000
C87         C  0.71854857  0.35958554  0.13696947     0.93900
O88         O  0.70276474  0.38023048  0.14212326    -0.82200
O89         O  0.42278528  0.28871752  0.89413717    -0.81600
C90         C  0.45867364  0.24321624  0.06692029     0.97700
O91         O  0.43385818  0.24943422  0.05822920    -0.70800
O92         O  0.41902654  0.29966720  0.03162129    -0.74300
Al93       Al  0.41596470  0.26438446  0.00222465     1.49000
C94         C  0.42041353  0.32220255  0.00939179     0.93000
O95         O  0.48337414  0.30756934  0.97014140    -0.80600
O96         O  0.47178576  0.23608693  0.90166495    -0.74100
Al97       Al  0.45278595  0.29727669  0.93309842     1.90100
O98         O  0.50316574  0.26641911  0.96645594    -0.73200
O99         O  0.44791281  0.20978197  0.97454583    -0.73000
O100        O  0.47635226  0.24201914  0.03441880    -0.78700
O101        O  0.40719111  0.22881552  0.97933604    -0.76900
O102        O  0.44691513  0.26727649  0.96854213    -1.13000
O103        O  0.39302034  0.27900000  0.95138925    -0.72200
C104        C  0.39842681  0.28514316  0.90841627     0.98500
C105        C  0.50440921  0.29232815  0.97434020     0.94900
Al106      Al  0.47250260  0.24074260  0.96898265     1.55600
O107        O  0.43100368  0.32284744  0.96870266    -0.76900
C108        C  0.42218790  0.20765714  0.97734995     0.99000
C109        C  0.47951558  0.25541134  0.87463125     0.93900
O110        O  0.47622673  0.28029599  0.88686214    -0.82200
O111        O  0.31044368  0.40907185  0.67168899    -0.81600
C112        C  0.27316523  0.43044160  0.48767619     0.97700
O113        O  0.27796960  0.40634150  0.50388343    -0.70800
O114        O  0.32562084  0.39389439  0.53886351    -0.74300
Al115      Al  0.28984866  0.39303163  0.56516584     1.49000
C116        C  0.34733614  0.39881272  0.56078973     0.93000
O117        O  0.32996668  0.46422423  0.58343111    -0.80600
O118        O  0.25652167  0.45517971  0.64678973    -0.74100
Al119      Al  0.31924350  0.43623445  0.62648617     1.90100
O120        O  0.28913137  0.48382604  0.58073540    -0.73200
O121        O  0.23428518  0.42601594  0.57450581    -0.73000
O122        O  0.26979713  0.45100474  0.51456277    -0.78700
O123        O  0.25391843  0.38588820  0.58626847    -0.76900
O124        O  0.29109515  0.42676708  0.59031772    -1.13000
O125        O  0.30209726  0.37442065  0.62285202    -0.72200
C126        C  0.30703498  0.38355217  0.66422029     0.98500
C127        C  0.31501942  0.48506857  0.57517663     0.94900
Al128      Al  0.26453710  0.45181049  0.58031626     1.55600
O129        O  0.34659115  0.41289666  0.59816724    -0.76900
C130        C  0.23281496  0.39998329  0.57790973     0.99000
C131        C  0.27431595  0.46457862  0.67488780     0.93900
O132        O  0.29956258  0.46214816  0.66547188    -0.82200
O133        O  0.47750481  0.70096468  0.38456142    -0.81600
C134        C  0.45925766  0.72096537  0.57248988     0.97700
O135        O  0.47738076  0.72528392  0.54141793    -0.70800
O136        O  0.50449290  0.70646327  0.46733529    -0.74300
Al137      Al  0.47402400  0.73256219  0.47630092     1.49000
C138        C  0.50497164  0.68005896  0.46747511     0.93000
O139        O  0.43154583  0.65202987  0.45360050    -0.80600
O140        O  0.39413380  0.69710036  0.44752527    -0.74100
Al141      Al  0.45365343  0.68041322  0.42534593     1.90100
O142        O  0.42022263  0.66961727  0.52180121    -0.73200
O143        O  0.40859759  0.74413041  0.48849026    -0.73000
O144        O  0.43459684  0.71613139  0.56111055    -0.78700
O145        O  0.44926023  0.76334786  0.48892837    -0.76900
O146        O  0.44808905  0.70687009  0.46819773    -1.13000
O147        O  0.47418150  0.74339973  0.41090539    -0.72200
C148        C  0.48146806  0.72653884  0.37918084     0.98500
C149        C  0.42144056  0.64926328  0.49437276     0.94900
Al150      Al  0.41706889  0.70691145  0.50179855     1.55600
O151        O  0.48355798  0.66620644  0.45959079    -0.76900
C152        C  0.42342264  0.76525678  0.49201132     0.99000
C153        C  0.39953856  0.69459364  0.40347629     0.93900
O154        O  0.42398974  0.69304297  0.38860432    -0.82200
O155        O  0.30708820  0.51836694  0.16682900    -0.81600
C156        C  0.27638648  0.54525397  0.98719226     0.97700
O157        O  0.27514619  0.52503274  0.01553504    -0.70800
O158        O  0.29782728  0.49467110  0.08286263    -0.74300
Al159      Al  0.27095503  0.52501720  0.08167805     1.49000
C160        C  0.32375356  0.49508429  0.07717286     0.93000
O161        O  0.35015311  0.56944342  0.09685338    -0.80600
O162        O  0.30366035  0.60530909  0.11836755    -0.74100
Al163      Al  0.32453874  0.54486128  0.12637853     1.90100
O164        O  0.32809649  0.58502990  0.03552150    -0.73200
O165        O  0.25598431  0.59064045  0.08269977    -0.73000
O166        O  0.28073596  0.56973340  0.00172692    -0.78700
O167        O  0.23918005  0.54890205  0.07590268    -0.76900
O168        O  0.29577048  0.55178206  0.08959193    -1.13000
O169        O  0.26368200  0.52213422  0.14841174    -0.72200
C170        C  0.28216416  0.51442120  0.17677838     0.98500
C171        C  0.35003087  0.58222981  0.05801727     0.94900
Al172      Al  0.29234991  0.58482833  0.06198381     1.55600
O173        O  0.33727794  0.51685401  0.08500793    -0.76900
C174        C  0.23585424  0.57483670  0.07737717     0.99000
C175        C  0.30877003  0.59736276  0.16054034     0.93900
O176        O  0.31359160  0.57222314  0.16993461    -0.82200
O177        O  0.08890466  0.18557579  0.39046685    -0.81600
C178        C  0.06708406  0.22143474  0.57614918     0.97700
O179        O  0.09092368  0.21629540  0.56003535    -0.70800
O180        O  0.09947836  0.16748476  0.52422792    -0.74300
Al181      Al  0.10377338  0.20344602  0.49881254     1.49000
C182        C  0.09421696  0.14606616  0.50091747     0.93000
O183        O  0.03160772  0.16790660  0.47420071    -0.80600
O184        O  0.04565126  0.24265707  0.41853009    -0.74100
Al185      Al  0.06062392  0.17767816  0.43387273     1.90100
O186        O  0.01447437  0.21001932  0.48048690    -0.73200
O187        O  0.07506759  0.26143762  0.49205114    -0.73000
O188        O  0.04707833  0.22571505  0.54906355    -0.78700
O189        O  0.11326280  0.23914007  0.47748335    -0.76900
O190        O  0.07084701  0.20466745  0.47249203    -1.13000
O191        O  0.12237683  0.18963301  0.44220747    -0.72200
C192        C  0.11412156  0.18602740  0.40000535     0.98500
C193        C  0.01170859  0.18386703  0.48298769     0.94900
Al194      Al  0.04758989  0.23271448  0.48398422     1.55600
O195        O  0.08143259  0.14794762  0.46234471    -0.76900
C196        C  0.10065552  0.26149262  0.48465377     0.99000
C197        C  0.03612133  0.22601710  0.38844817     0.93900
O198        O  0.03723776  0.20016338  0.39521738    -0.82200
O199        O  0.21287544  0.06609603  0.16681708    -0.81600
C200        C  0.25443883  0.04098558  0.98537676     0.97700
O201        O  0.24974371  0.06537787  0.00028219    -0.70800
O202        O  0.20010019  0.07773795  0.03075886    -0.74300
Al203      Al  0.23507645  0.07952651  0.05971383     1.49000
C204        C  0.17798540  0.07489399  0.05331342     0.93000
O205        O  0.19290320  0.01051936  0.08133794    -0.80600
O206        O  0.26548952  0.01811191  0.14516419    -0.74100
Al207      Al  0.20380468  0.03845191  0.12297482     1.90100
O208        O  0.23289252  0.98913993  0.07981155    -0.73200
O209        O  0.28889576  0.04564621  0.07237180    -0.73000
O210        O  0.25432232  0.02041120  0.01290882    -0.78700
O211        O  0.27039459  0.08646002  0.08433100    -0.76900
O212        O  0.23255156  0.04635891  0.08673643    -1.13000
O213        O  0.22045330  0.09944885  0.11462505    -0.72200
C214        C  0.21495128  0.09147406  0.15665913     0.98500
C215        C  0.20709176  0.98917854  0.07315446     0.94900
Al216      Al  0.25837848  0.02049899  0.07857432     1.55600
O217        O  0.17773847  0.06226075  0.09241655    -0.76900
C218        C  0.29118540  0.07152202  0.07733125     0.99000
C219        C  0.24721888  0.00994431  0.17378089     0.93900
O220        O  0.22213994  0.01253032  0.16373207    -0.82200
O221        O  0.04573336  0.78169000  0.90070499    -0.81600
C222        C  0.06478926  0.74324914  0.07972362     0.97700
O223        O  0.04625841  0.74308686  0.04887086    -0.70800
O224        O  0.01890496  0.76884661  0.98178416    -0.74300
Al225      Al  0.04922050  0.74183536  0.98279997     1.49000
C226        C  0.01904292  0.79480735  0.99007438     0.93000
O227        O  0.09296447  0.82221289  0.98066794    -0.80600
O228        O  0.12956318  0.77831175  0.96087379    -0.74100
Al229      Al  0.07012220  0.79769380  0.94587111     1.90100
O230        O  0.10461223  0.79827223  0.04293455    -0.73200
O231        O  0.11445412  0.72839788  0.98684316    -0.73000
O232        O  0.08957414  0.74835393  0.06880439    -0.78700
O233        O  0.07350330  0.70989808  0.98694917    -0.76900
O234        O  0.07552383  0.76749277  0.98074556    -1.13000
O235        O  0.04909850  0.73729763  0.91511398    -0.72200
C236        C  0.04221279  0.75695529  0.88801257     0.98500
C237        C  0.10394140  0.82083997  0.02080486     0.94900
Al238      Al  0.10684765  0.76350180  0.01225829     1.55600
O239        O  0.04067584  0.80882997  0.98479242    -0.76900
C240        C  0.09933713  0.70744096  0.98576231     0.99000
C241        C  0.12389976  0.78466327  0.91819914     0.93900
O242        O  0.09938439  0.78830273  0.90507041    -0.82200
O243        O  0.21612744  0.95495778  0.67086525    -0.81600
C244        C  0.24557213  0.93070869  0.48870335     0.97700
O245        O  0.24715985  0.95033438  0.51770338    -0.70800
O246        O  0.22461971  0.97965313  0.58572757    -0.74300
Al247      Al  0.25143968  0.94932377  0.58349325     1.49000
C248        C  0.19848902  0.97985728  0.58344978     0.93000
O249        O  0.17199111  0.90504762  0.60186827    -0.80600
O250        O  0.21551924  0.86916130  0.61600085    -0.74100
Al251      Al  0.19813611  0.92911776  0.63105648     1.90100
O252        O  0.19244402  0.89361576  0.53596831    -0.73200
O253        O  0.26402262  0.88315226  0.58297393    -0.73000
O254        O  0.24100064  0.90615933  0.50250985    -0.78700
O255        O  0.28281029  0.92429143  0.57761042    -0.76900
O256        O  0.22617815  0.92298067  0.59179378    -1.13000
O257        O  0.25924649  0.95220677  0.64988016    -0.72200
C258        C  0.24091993  0.96055885  0.67817337     0.98500
C259        C  0.17112669  0.89450813  0.56116698     0.94900
Al260      Al  0.22824651  0.89073468  0.56182123     1.55600
O261        O  0.18474294  0.95823437  0.59230097    -0.76900
C262        C  0.28500882  0.89818138  0.58097086     0.99000
C263        C  0.21156621  0.87536723  0.65928886     0.93900
O264        O  0.20984478  0.90037389  0.67235988    -0.82200
O265        O  0.92840729  0.78692721  0.39502326    -0.81600
C266        C  0.95193074  0.75272408  0.58122504     0.97700
O267        O  0.92857426  0.76118841  0.56766800    -0.70800
O268        O  0.91633301  0.80795498  0.52745848    -0.74300
Al269      Al  0.91403863  0.77096538  0.50592876     1.49000
C270        C  0.91932407  0.82868312  0.50125917     0.93000
O271        O  0.98278545  0.81002571  0.48004377    -0.80600
O272        O  0.97557111  0.73566644  0.41931073    -0.74100
Al273      Al  0.95540744  0.79800718  0.43819572     1.90100
O274        O  0.00203135  0.76852409  0.48831763    -0.73200
O275        O  0.94478945  0.71253775  0.48752955    -0.73000
O276        O  0.97014591  0.74580512  0.55188501    -0.78700
O277        O  0.90551246  0.73448113  0.49092971    -0.76900
O278        O  0.94658931  0.77030632  0.47718481    -1.13000
O279        O  0.89464766  0.78123864  0.44726639    -0.72200
C280        C  0.90314277  0.78414891  0.40454092     0.98500
C281        C  0.00283505  0.79487877  0.49202994     0.94900
Al282      Al  0.97095740  0.74287262  0.48596455     1.55600
O283        O  0.93173034  0.82624981  0.46250746    -0.76900
C284        C  0.91886600  0.71233171  0.48788402     0.99000
C285        C  0.98575573  0.75377211  0.39229125     0.93900
O286        O  0.98206380  0.77899535  0.40098761    -0.82200
O287        O  0.81024668  0.89856706  0.16856430    -0.81600
C288        C  0.77378694  0.93199100  0.98754273     0.97700
O289        O  0.77907129  0.90716023  0.99948587    -0.70800
O290        O  0.82701651  0.89324524  0.03253601    -0.74300
Al291      Al  0.79135942  0.89022417  0.05822438     1.49000
C292        C  0.84827235  0.89400996  0.05721158     0.93000
O293        O  0.83252852  0.95845947  0.09140300    -0.80600
O294        O  0.75857804  0.94858918  0.15132129    -0.74100
Al295      Al  0.82061145  0.92821609  0.12867947     1.90100
O296        O  0.79189523  0.97882536  0.08876319    -0.73200
O297        O  0.73585813  0.92248224  0.07540257    -0.73000
O298        O  0.77102949  0.95070566  0.01823118    -0.78700
O299        O  0.75570663  0.88177198  0.07799594    -0.76900
O300        O  0.79260700  0.92196263  0.09001242    -1.13000
O301        O  0.80384661  0.86772793  0.11191493    -0.72200
C302        C  0.80793448  0.87371214  0.15525405     0.98500
C303        C  0.81793734  0.97993200  0.08553397     0.94900
Al304      Al  0.76643273  0.94783801  0.08421936     1.55600
O305        O  0.84760825  0.90534001  0.09734075    -0.76900
C306        C  0.73452688  0.89632926  0.07345788     0.99000
C307        C  0.77664956  0.95673096  0.18007724     0.93900
O308        O  0.80169857  0.95263907  0.17111253    -0.82200
O309        O  0.98006964  0.18644768  0.89912231    -0.81600
C310        C  0.95818675  0.22276545  0.07830193     0.97700
O311        O  0.97798279  0.22141934  0.04950800    -0.70800
O312        O  0.00653189  0.19746191  0.98171303    -0.74300
Al313      Al  0.97677454  0.22461162  0.98348597     1.49000
C314        C  0.00605286  0.17149462  0.98911772     0.93000
O315        O  0.93243658  0.14537887  0.97920233    -0.80600
O316        O  0.89581248  0.19056900  0.95626235    -0.74100
Al317      Al  0.95535071  0.16978064  0.94373606     1.90100
O318        O  0.91808130  0.17007053  0.03922058    -0.73200
O319        O  0.91216860  0.24036119  0.98074624    -0.73000
O320        O  0.93360099  0.21975388  0.06483177    -0.78700
O321        O  0.95362582  0.25699230  0.98844046    -0.76900
O322        O  0.94978099  0.19982431  0.97865886    -1.13000
O323        O  0.97828307  0.23063267  0.91661155    -0.72200
C324        C  0.98446604  0.21143105  0.88821933     0.98500
C325        C  0.92105814  0.14702194  0.01919434     0.94900
Al326      Al  0.91765305  0.20489659  0.00781489     1.55600
O327        O  0.98437064  0.15785272  0.98295250    -0.76900
C328        C  0.92817789  0.26065031  0.98332183     0.99000
C329        C  0.90195426  0.18384603  0.91409005     0.93900
O330        O  0.92653927  0.17930115  0.90194829    -0.82200
O331        O  0.80041825  0.02213925  0.66808099    -0.81600
C332        C  0.77148957  0.04744050  0.48606741     0.97700
O333        O  0.76963784  0.02757431  0.51497865    -0.70800
O334        O  0.78961302  0.99702848  0.58419908    -0.74300
Al335      Al  0.76499401  0.02888777  0.58118848     1.49000
C336        C  0.81550514  0.99547068  0.57948732     0.93000
O337        O  0.84643650  0.06806212  0.59257409    -0.80600
O338        O  0.80450407  0.10759800  0.61208813    -0.74100
Al339      Al  0.81973752  0.04623234  0.62543040     1.90100
O340        O  0.82466864  0.08352135  0.53039380    -0.73200
O341        O  0.75494751  0.09509169  0.58387639    -0.73000
O342        O  0.77563519  0.07200637  0.50023609    -0.78700
O343        O  0.73493819  0.05493789  0.57481514    -0.76900
O344        O  0.79145812  0.05408414  0.58827664    -1.13000
O345        O  0.75732376  0.02724826  0.64801511    -0.72200
C346        C  0.77523413  0.01917583  0.67721867     0.98500
C347        C  0.84654798  0.07994707  0.55281509     0.94900
Al348      Al  0.78983810  0.08678222  0.55910670     1.55600
O349        O  0.83047533  0.01631386  0.58655776    -0.76900
C350        C  0.73355389  0.08086674  0.58043030     0.99000
C351        C  0.80966706  0.10091190  0.65468052     0.93900
O352        O  0.81117886  0.07577805  0.66713266    -0.82200
C353        C  0.84508714  0.15790800  0.83345205     0.16100
C354        C  0.82533694  0.14066146  0.81297190    -0.32900
C355        C  0.82487354  0.13884891  0.76334278     0.20500
C356        C  0.84215212  0.15478939  0.73519643     0.02700
C357        C  0.86167234  0.17229476  0.75566643    -0.22700
C358        C  0.86324301  0.17281578  0.80529149     0.11900
S359        S  0.85179120  0.15953113  0.89278510    -0.06300
C360        C  0.88020743  0.17917058  0.87924140    -0.09800
C361        C  0.88353540  0.18495693  0.83142603    -0.26400
S362        S  0.83997873  0.14795755  0.67594462    -0.03600
C363        C  0.81664418  0.12236443  0.68942011    -0.17000
C364        C  0.81030360  0.12006528  0.73722837    -0.15000
H365        H  0.81216911  0.12776447  0.83483191     0.20300
H366        H  0.87625919  0.18355070  0.73383156     0.16400
H367        H  0.90088872  0.19595740  0.81637080     0.18900
H368        H  0.79710870  0.10425918  0.75232575     0.12200
C369        C  0.84524098  0.05417556  0.07396317     0.16100
C370        C  0.84897356  0.08296980  0.07234687    -0.32900
C371        C  0.87545694  0.09283681  0.06247599     0.20500
C372        C  0.89727510  0.07481938  0.05474908     0.02700
C373        C  0.89370226  0.04609248  0.05776908    -0.22700
C374        C  0.86721717  0.03625381  0.06721395     0.11900
S375        S  0.81450904  0.03795790  0.08292307    -0.06300
C376        C  0.83156179  0.00674309  0.07794659    -0.09800
C377        C  0.85952254  0.00904467  0.06973939    -0.26400
S378        S  0.92690065  0.09058662  0.03706557    -0.03600
C379        C  0.90980686  0.12177881  0.04050116    -0.17000
C380        C  0.88273282  0.11995692  0.05529638    -0.15000
H381        H  0.83178649  0.09708519  0.07710974     0.20300
H382        H  0.91068235  0.03194704  0.05128938     0.16400
H383        H  0.87353544  0.99166153  0.06590459     0.18900
H384        H  0.86854596  0.13731614  0.05674975     0.12200
C385        C  0.77647579  0.94816852  0.85403461     0.16100
C386        C  0.78396887  0.95056519  0.80615062    -0.32900
C387        C  0.77369015  0.97331726  0.78054971     0.20500
C388        C  0.75596691  0.99243070  0.80104361     0.02700
C389        C  0.74845620  0.99002273  0.84897750    -0.22700
C390        C  0.75947295  0.96774930  0.87501658     0.11900
S391        S  0.78833025  0.92317089  0.89212453    -0.06300
C392        C  0.77098533  0.93981761  0.93717290    -0.09800
C393        C  0.75638351  0.96312448  0.92272055    -0.26400
S394        S  0.74670139  0.01917576  0.76414492    -0.03600
C395        C  0.76764940  0.00484429  0.72139751    -0.17000
C396        C  0.78057215  0.98046906  0.73503282    -0.15000
H397        H  0.79798782  0.93584390  0.78993876     0.20300
H398        H  0.73535151  0.00538764  0.86569841     0.16400
H399        H  0.74470064  0.97645891  0.94625650     0.18900
H400        H  0.79510296  0.96912272  0.71318455     0.12200
C401        C  0.75404506  0.99074999  0.29750510     0.16100
C402        C  0.74285406  0.99683317  0.34229072    -0.32900
C403        C  0.75673098  0.01610236  0.37075015     0.20500
C404        C  0.78008563  0.02960915  0.35468059     0.02700
C405        C  0.79124071  0.02356688  0.30995759    -0.22700
C406        C  0.77798524  0.00351876  0.28234922     0.11900
S407        S  0.74164033  0.96640726  0.25884011    -0.06300
C408        C  0.76967427  0.97273368  0.22303568    -0.09800
C409        C  0.78705928  0.99316806  0.23993003    -0.26400
S410        S  0.79459245  0.05130530  0.39537096    -0.03600
C411        C  0.76957358  0.04126943  0.43510448    -0.17000
C412        C  0.75075743  0.02257017  0.41703770    -0.15000
H413        H  0.72472100  0.98620179  0.35516776     0.20300
H414        H  0.81008533  0.03326525  0.29795793     0.16400
H415        H  0.80583431  0.99967294  0.22242486     0.18900
H416        H  0.73430544  0.01323657  0.43748137     0.12200
C417        C  0.86619541  0.79629225  0.28729595     0.16100
C418        C  0.86149473  0.80325544  0.23971848    -0.32900
C419        C  0.83900291  0.82043230  0.22954915     0.20500
C420        C  0.82150737  0.82964681  0.26514650     0.02700
C421        C  0.82553802  0.82166913  0.31255004    -0.22700
C422        C  0.84855293  0.80516982  0.32293774     0.11900
S423        S  0.89523277  0.78047425  0.30730141    -0.06300
C424        C  0.88392662  0.78626077  0.36446534    -0.09800
C425        C  0.85836979  0.79893483  0.36743533    -0.26400
S426        S  0.79840546  0.85412859  0.24693357    -0.03600
C427        C  0.81237669  0.85186340  0.19083216    -0.17000
C428        C  0.83351706  0.83273651  0.18662436    -0.15000
H429        H  0.87593622  0.79723471  0.21221113     0.20300
H430        H  0.81249341  0.82972714  0.34057354     0.16400
H431        H  0.84885040  0.80574744  0.40020449     0.18900
H432        H  0.84603905  0.83011553  0.15505978     0.12200
C433        C  0.89124550  0.90223611  0.51871001     0.16100
C434        C  0.88527838  0.93062495  0.51614695    -0.32900
C435        C  0.86183731  0.94018358  0.54012827     0.20500
C436        C  0.84483237  0.92226569  0.56508676     0.02700
C437        C  0.85112519  0.89395730  0.56847729    -0.22700
C438        C  0.87477659  0.88444641  0.54497766     0.11900
S439        S  0.91783178  0.88630680  0.48988478    -0.06300
C440        C  0.90702779  0.85544998  0.51436555    -0.09800
C441        C  0.88399022  0.85760153  0.54317310    -0.26400
S442        S  0.81686227  0.93788000  0.59042322    -0.03600
C443        C  0.82864248  0.96890627  0.56812501    -0.17000
C444        C  0.85281302  0.96705358  0.54226920    -0.15000
H445        H  0.89822569  0.94464194  0.49594958     0.20300
H446        H  0.83803292  0.87990007  0.58830039     0.16400
H447        H  0.87383565  0.84023301  0.56020234     0.18900
H448        H  0.86326026  0.98451543  0.52606105     0.12200
C449        C  0.06081125  0.83800070  0.54370131     0.16100
C450        C  0.07725862  0.85587159  0.57028656    -0.32900
C451        C  0.10298701  0.86304034  0.55150415     0.20500
C452        C  0.11188120  0.85308003  0.50797853     0.02700
C453        C  0.09547308  0.83514538  0.48146081    -0.22700
C454        C  0.06990668  0.82768007  0.50050582     0.11900
S455        S  0.02859344  0.82751360  0.55956643    -0.06300
C456        C  0.02778346  0.80851782  0.50813951    -0.09800
C457        C  0.05103241  0.81053625  0.48005185    -0.26400
S458        S  0.14403645  0.86364525  0.49194594    -0.03600
C459        C  0.14569571  0.88139444  0.54471089    -0.17000
C460        C  0.12229006  0.87935514  0.57270497    -0.15000
H461        H  0.07032077  0.86380000  0.60429420     0.20300
H462        H  0.10245104  0.82714435  0.44753304     0.16400
H463        H  0.05351639  0.80079211  0.44567991     0.18900
H464        H  0.11989667  0.88854164  0.60754153     0.12200
C465        C  0.96123135  0.84289327  0.03205933     0.16100
C466        C  0.94576662  0.86475256  0.05109780    -0.32900
C467        C  0.91760614  0.86538936  0.04154402     0.20500
C468        C  0.90538181  0.84528203  0.01376577     0.02700
C469        C  0.92078584  0.82304239  0.99542709    -0.22700
C470        C  0.94899039  0.82224561  0.00545283     0.11900
S471        S  0.99584473  0.83947690  0.03777289    -0.06300
C472        C  0.99396033  0.80958271  0.00477948    -0.09800
C473        C  0.96769783  0.80272682  0.99019020    -0.26400
S474        S  0.87098296  0.85015463  0.00574533    -0.03600
C475        C  0.87304882  0.87920717  0.04106057    -0.17000
C476        C  0.89912034  0.88472737  0.05774768    -0.15000
H477        H  0.95533616  0.88071057  0.07221905     0.20300
H478        H  0.91123413  0.80715290  0.97412566     0.16400
H479        H  0.96277734  0.78514031  0.96805801     0.18900
H480        H  0.90417390  0.90170829  0.08112851     0.12200
C481        C  0.17973316  0.81387187  0.83741086     0.16100
C482        C  0.19876743  0.83219066  0.81691780    -0.32900
C483        C  0.19846481  0.83532268  0.76738358     0.20500
C484        C  0.18103276  0.81978157  0.73934630     0.02700
C485        C  0.16223747  0.80134358  0.75975384    -0.22700
C486        C  0.16157453  0.79929040  0.80927358     0.11900
S487        S  0.17380932  0.81031796  0.89699160    -0.06300
C488        C  0.14580834  0.79016710  0.88352464    -0.09800
C489        C  0.14210326  0.78572185  0.83552364    -0.26400
S490        S  0.18220712  0.82789582  0.68049153    -0.03600
C491        C  0.20545066  0.85341008  0.69384198    -0.17000
C492        C  0.21242717  0.85488170  0.74137707    -0.15000
H493        H  0.21202692  0.84476331  0.83883582     0.20300
H494        H  0.14755128  0.79034674  0.73805793     0.16400
H495        H  0.12478699  0.77482022  0.82049863     0.18900
H496        H  0.22569832  0.87051552  0.75642892     0.12200
C497        C  0.03135342  0.72560627  0.19905248     0.16100
C498        C  0.01272490  0.71772282  0.23473634    -0.32900
C499        C  0.01492954  0.73064718  0.27901714     0.20500
C500        C  0.03519068  0.75016140  0.28739053     0.02700
C501        C  0.05442052  0.75725330  0.25230714    -0.22700
C502        C  0.05189656  0.74473809  0.20783499     0.11900
S503        S  0.02942315  0.71553349  0.14132886    -0.06300
C504        C  0.05660692  0.73722126  0.12890075    -0.09800
C505        C  0.06681937  0.75113331  0.16780692    -0.26400
S506        S  0.03236744  0.76635058  0.34065093    -0.03600
C507        C  0.00359755  0.74673135  0.35200824    -0.17000
C508        C  0.99690502  0.72818420  0.31655810    -0.15000
H509        H  0.99627633  0.70329492  0.22747462     0.20300
H510        H  0.06975835  0.77302842  0.25862298     0.16400
H511        H  0.08292826  0.76655026  0.16622864     0.18900
H512        H  0.97872699  0.71530805  0.31664737     0.12200
C513        C  0.01274705  0.73784506  0.76620973     0.16100
C514        C  0.00697253  0.72688056  0.72136278    -0.32900
C515        C  0.98671379  0.74016894  0.69411041     0.20500
C516        C  0.97244287  0.76305540  0.71090456     0.02700
C517        C  0.97845599  0.77421027  0.75545110    -0.22700
C518        C  0.99904292  0.76125613  0.78229777     0.11900
S519        S  0.03667816  0.72498220  0.80497071    -0.06300
C520        C  0.02851754  0.75188949  0.84250698    -0.09800
C521        C  0.00826621  0.76956246  0.82567901    -0.26400
S522        S  0.94913933  0.77658321  0.67177523    -0.03600
C523        C  0.95928558  0.75163393  0.63180895    -0.17000
C524        C  0.97933295  0.73364489  0.64872993    -0.15000
H525        H  0.01805884  0.70897856  0.70797796     0.20300
H526        H  0.96783990  0.79251472  0.76835811     0.16400
H527        H  0.00057591  0.78757394  0.84451291     0.18900
H528        H  0.98886482  0.71730393  0.62802038     0.12200
C529        C  0.15450286  0.87633768  0.05901466     0.16100
C530        C  0.17820777  0.89098080  0.07162821    -0.32900
C531        C  0.17917000  0.91933576  0.06037416     0.20500
C532        C  0.15740978  0.93240799  0.03785358     0.02700
C533        C  0.13399977  0.91774387  0.02470810    -0.22700
C534        C  0.13310243  0.88950562  0.03572206     0.11900
S535        S  0.14948907  0.84167507  0.06788918    -0.06300
C536        C  0.11865394  0.84501850  0.03874885    -0.09800
C537        C  0.11252927  0.87167217  0.02398310    -0.26400
S538        S  0.16121999  0.96713425  0.03051565    -0.03600
C539        C  0.19248791  0.96425956  0.05814354    -0.17000
C540        C  0.19974839  0.93755977  0.07146644    -0.15000
H541        H  0.19506891  0.88076834  0.08951358     0.20300
H542        H  0.11710490  0.92796739  0.00691372     0.16400
H543        H  0.09462103  0.87740156  0.00353494     0.18900
H544        H  0.21810639  0.93213734  0.09092196     0.12200
C545        C  0.11955888  0.12099321  0.00810049     0.16100
C546        C  0.10374395  0.14274796  0.98946293    -0.32900
C547        C  0.07581365  0.14372014  0.00168946     0.20500
C548        C  0.06406414  0.12364471  0.03060262     0.02700
C549        C  0.07996918  0.10218010  0.04989710    -0.22700
C550        C  0.10795820  0.10142716  0.03816023     0.11900
S551        S  0.15389907  0.11649650  0.99832755    -0.06300
C552        C  0.15280291  0.08844451  0.03622147    -0.09800
C553        C  0.12696654  0.08276438  0.05459678    -0.26400
S554        S  0.02951647  0.12733844  0.03861473    -0.03600
C555        C  0.03098226  0.15653267  0.00340901    -0.17000
C556        C  0.05695733  0.16297757  0.98659570    -0.15000
H557        H  0.11283722  0.15827769  0.96641967     0.20300
H558        H  0.07088581  0.08666541  0.07299545     0.16400
H559        H  0.12251058  0.06638163  0.07985839     0.18900
H560        H  0.06155197  0.18012217  0.96295505     0.12200
C561        C  0.27302139  0.01270021  0.86374574     0.16100
C562        C  0.28157692  0.99488179  0.82727912    -0.32900
C563        C  0.26582324  0.99436712  0.78587042     0.20500
C564        C  0.24308571  0.01152126  0.78074647     0.02700
C565        C  0.23533654  0.03022298  0.81622295    -0.22700
C566        C  0.25055020  0.03014245  0.85807688     0.11900
S567        S  0.28591031  0.01227457  0.91970521    -0.06300
C568        C  0.26071477  0.03568664  0.93548749    -0.09800
C569        C  0.24373004  0.04388288  0.89898814    -0.26400
S570        S  0.22423766  0.00528365  0.73154624    -0.03600
C571        C  0.24700016  0.97915361  0.71763713    -0.17000
C572        C  0.26855860  0.97597846  0.74894111    -0.15000
H573        H  0.29858525  0.98064883  0.83229955     0.20300
H574        H  0.21705254  0.04291173  0.81264792     0.16400
H575        H  0.22581566  0.05703381  0.90326657     0.18900
H576        H  0.28408216  0.95989868  0.74664200     0.12200
C577        C  0.24367459  0.94362033  0.35495764     0.16100
C578        C  0.23618835  0.94517002  0.30722374    -0.32900
C579        C  0.24724723  0.96677981  0.27992861     0.20500
C580        C  0.26568861  0.98559575  0.29864740     0.02700
C581        C  0.27317226  0.98407095  0.34650224    -0.22700
C582        C  0.26139121  0.96294982  0.37421817     0.11900
S583        S  0.23093588  0.92008811  0.39475940    -0.06300
C584        C  0.24888530  0.93707655  0.43810129    -0.09800
C585        C  0.26431384  0.95936814  0.42204786    -0.26400
S586        S  0.27587467  0.01092540  0.25970354    -0.03600
C587        C  0.25432928  0.99640383  0.21861031    -0.17000
C588        C  0.24054330  0.97302783  0.23418537    -0.15000
H589        H  0.22160993  0.93069800  0.29235657     0.20300
H590        H  0.28683953  0.99925554  0.36186999     0.16400
H591        H  0.27641557  0.97274098  0.44453749     0.18900
H592        H  0.22556344  0.96179352  0.21351080     0.12200
C593        C  0.93818333  0.15736464  0.49878485     0.16100
C594        C  0.90972864  0.15311024  0.49964741    -0.32900
C595        C  0.90033534  0.12657300  0.51222022     0.20500
C596        C  0.91840656  0.10531794  0.52365139     0.02700
C597        C  0.94672672  0.10939588  0.52168894    -0.22700
C598        C  0.95607436  0.13580005  0.50915237     0.11900
S599        S  0.95409260  0.18804917  0.48551490    -0.06300
C600        C  0.98500894  0.17128200  0.49349454    -0.09800
C601        C  0.98284303  0.14361767  0.50595679    -0.26400
S602        S  0.90317759  0.07557108  0.54296753    -0.03600
C603        C  0.87210802  0.09171449  0.53476743    -0.17000
C604        C  0.87357491  0.11864178  0.51772884    -0.15000
H605        H  0.89555011  0.16982464  0.49171014     0.20300
H606        H  0.96090006  0.09285358  0.53063919     0.16400
H607        H  0.00007179  0.12978715  0.51184248     0.18900
H608        H  0.85606306  0.13224277  0.51285770     0.12200
C609        C  0.01403593  0.23418001  0.76817780     0.16100
C610        C  0.01980317  0.24681362  0.72447660    -0.32900
C611        C  0.03782052  0.23296769  0.69353459     0.20500
C612        C  0.05019385  0.20806193  0.70594292     0.02700
C613        C  0.04425801  0.19534143  0.74942191    -0.22700
C614        C  0.02566425  0.20878231  0.77974586     0.11900
S615        S  0.99209421  0.24708737  0.81032391    -0.06300
C616        C  0.99804849  0.21747712  0.84288145    -0.09800
C617        C  0.01633108  0.19899196  0.82231068    -0.26400
S618        S  0.07069477  0.19409173  0.66280910    -0.03600
C619        C  0.06177843  0.22162114  0.62721827    -0.17000
C620        C  0.04423793  0.24071571  0.64814798    -0.15000
H621        H  0.01016681  0.26624070  0.71454446     0.20300
H622        H  0.05319223  0.17546504  0.75870648     0.16400
H623        H  0.02244858  0.17934755  0.83779583     0.18900
H624        H  0.03565911  0.25863537  0.63024427     0.12200
C625        C  0.96882551  0.22711608  0.21205384     0.16100
C626        C  0.96899887  0.22207400  0.26088402    -0.32900
C627        C  0.99158918  0.23161000  0.28659551     0.20500
C628        C  0.01262309  0.24650107  0.26524592     0.02700
C629        C  0.01226893  0.25185434  0.21646656    -0.22700
C630        C  0.99022268  0.24131809  0.19042450     0.11900
S631        S  0.94472811  0.21473958  0.17382832    -0.06300
C632        C  0.96425424  0.22799102  0.12823625    -0.09800
C633        C  0.98772931  0.24178395  0.14225322    -0.26400
S634        S  0.03942912  0.25393736  0.30194877    -0.03600
C635        C  0.02245721  0.23591844  0.34571354    -0.17000
C636        C  0.99716853  0.22551479  0.33279464    -0.15000
H637        H  0.95294575  0.20998466  0.27770150     0.20300
H638        H  0.02916311  0.26245102  0.19915924     0.16400
H639        H  0.00264093  0.25090320  0.11826484     0.18900
H640        H  0.98445807  0.21245941  0.35518276     0.12200
C641        C  0.19513515  0.13068895  0.26866338     0.16100
C642        C  0.18879226  0.13751495  0.31573650    -0.32900
C643        C  0.16742190  0.15650201  0.32365644     0.20500
C644        C  0.15307342  0.16825146  0.28626572     0.02700
C645        C  0.15995694  0.16205221  0.23914060    -0.22700
C646        C  0.18126658  0.14297827  0.23123291     0.11900
S647        S  0.21753877  0.10521088  0.25213510    -0.06300
C648        C  0.20849934  0.11145881  0.19414777    -0.09800
C649        C  0.18920978  0.13232220  0.18821739    -0.26400
S650        S  0.12553814  0.18783637  0.30320010    -0.03600
C651        C  0.13356281  0.18033883  0.36127449    -0.17000
C652        C  0.15659150  0.16377752  0.36689687    -0.15000
H653        H  0.19918586  0.12743873  0.34500432     0.20300
H654        H  0.14833915  0.17072221  0.20994455     0.16400
H655        H  0.17975774  0.13765221  0.15469872     0.18900
H656        H  0.16367091  0.15568942  0.40057632     0.12200
C657        C  0.11893058  0.07181962  0.52802865     0.16100
C658        C  0.12405756  0.04312975  0.52908947    -0.32900
C659        C  0.14869445  0.03397111  0.54978013     0.20500
C660        C  0.16735286  0.05254906  0.56853200     0.02700
C661        C  0.16178896  0.08104812  0.56891355    -0.22700
C662        C  0.13723580  0.09017981  0.54832602     0.11900
S663        S  0.09177008  0.08758605  0.50034236    -0.06300
C664        C  0.10507848  0.11912361  0.51718751    -0.09800
C665        C  0.12912578  0.11720596  0.54301620    -0.26400
S666        S  0.19683688  0.03766291  0.58919974    -0.03600
C667        C  0.18380470  0.00593816  0.57328050    -0.17000
C668        C  0.15786662  0.00706814  0.55314154    -0.15000
H669        H  0.10983165  0.02862914  0.51330570     0.20300
H670        H  0.17635721  0.09560799  0.58358567     0.16400
H671        H  0.14093190  0.13483814  0.55500505     0.18900
H672        H  0.14650023  0.98916039  0.54110204     0.12200
C673        C  0.15004995  0.64750689  0.98600790     0.16100
C674        C  0.17451269  0.63250202  0.98086478    -0.32900
C675        C  0.18246416  0.61506760  0.01819942     0.20500
C676        C  0.16653004  0.61197601  0.05870205     0.02700
C677        C  0.14154849  0.62655133  0.06336677    -0.22700
C678        C  0.13382820  0.64457328  0.02622314     0.11900
S679        S  0.13965879  0.67312949  0.94821261    -0.06300
C680        C  0.11296014  0.68016752  0.98652495    -0.09800
C681        C  0.11221647  0.66309243  0.02634903    -0.26400
S682        S  0.18150979  0.59151997  0.10159718    -0.03600
C683        C  0.20941317  0.58755933  0.06435746    -0.17000
C684        C  0.20687895  0.60113272  0.02129613    -0.15000
H685        H  0.18761918  0.63547896  0.95011270     0.20300
H686        H  0.12936662  0.62498784  0.09550416     0.16400
H687        H  0.09834235  0.66602078  0.05607472     0.18900
H688        H  0.22278951  0.60173041  0.99430131     0.12200
C689        C  0.38495754  0.83432474  0.51407244     0.16100
C690        C  0.37053092  0.85968986  0.51049428    -0.32900
C691        C  0.34995794  0.86534465  0.54469716     0.20500
C692        C  0.34461916  0.84681497  0.58124291     0.02700
C693        C  0.35931452  0.82197873  0.58533349    -0.22700
C694        C  0.37913263  0.81603502  0.55069958     0.11900
S695        S  0.40857519  0.82159747  0.47379943    -0.06300
C696        C  0.40975747  0.79129302  0.50647788    -0.09800
C697        C  0.39318280  0.79158193  0.54647352    -0.26400
S698        S  0.31693264  0.85512014  0.61560656    -0.03600
C699        C  0.31192031  0.88397024  0.58065782    -0.17000
C700        C  0.33133706  0.88705138  0.54456635    -0.15000
H701        H  0.37422082  0.87372480  0.48112384     0.20300
H702        H  0.35442030  0.80712851  0.61298370     0.16400
H703        H  0.39069535  0.77412519  0.57038176     0.18900
H704        H  0.33031715  0.90278122  0.51714886     0.12200
C705        C  0.32094316  0.63664435  0.27568759     0.16100
C706        C  0.32748274  0.64245038  0.32301794    -0.32900
C707        C  0.34542893  0.66454041  0.33170471     0.20500
C708        C  0.35580571  0.68055468  0.29487992     0.02700
C709        C  0.34825627  0.67553286  0.24776736    -0.22700
C710        C  0.33091775  0.65299276  0.23895202     0.11900
S711        S  0.30432147  0.60753288  0.25740301    -0.06300
C712        C  0.31103712  0.61732220  0.19965912    -0.09800
C713        C  0.32474754  0.64231567  0.19516579    -0.26400
S714        S  0.38101727  0.70294534  0.31142205    -0.03600
C715        C  0.37760030  0.69071600  0.36858468    -0.17000
C716        C  0.35747593  0.67070519  0.37433203    -0.15000
H717        H  0.32055060  0.62904366  0.35150995     0.20300
H718        H  0.35719242  0.68736535  0.21890814     0.16400
H719        H  0.33228609  0.65069322  0.16191453     0.18900
H720        H  0.35401798  0.65914818  0.40679972     0.12200
C721        C  0.16483595  0.36185338  0.55060416     0.16100
C722        C  0.13863979  0.34933561  0.55005579    -0.32900
C723        C  0.13474397  0.32645046  0.51956556     0.20500
C724        C  0.15577944  0.31724662  0.49021463     0.02700
C725        C  0.18149140  0.32986397  0.49031769    -0.22700
C726        C  0.18561090  0.35181658  0.52159952     0.11900
S727        S  0.17526239  0.38849576  0.58702605    -0.06300
C728        C  0.20793603  0.38480153  0.56369347    -0.09800
C729        C  0.21006388  0.36468873  0.52907593    -0.26400
S730        S  0.14873089  0.28798336  0.45923775    -0.03600
C731        C  0.11708676  0.28715770  0.48642719    -0.17000
C732        C  0.11211556  0.30926629  0.51710961    -0.15000
H733        H  0.12245558  0.35633919  0.57362362     0.20300
H734        H  0.19809605  0.32197928  0.46846222     0.16400
H735        H  0.22892778  0.35943360  0.51060735     0.18900
H736        H  0.09398807  0.31134085  0.53919684     0.12200
C737        C  0.39267777  0.57627876  0.51344993     0.16100
C738        C  0.38622395  0.54802548  0.51131301    -0.32900
C739        C  0.36228074  0.53915182  0.53454742     0.20500
C740        C  0.34527500  0.55760536  0.55837836     0.02700
C741        C  0.35206371  0.58575124  0.56142366    -0.22700
C742        C  0.37620520  0.59456299  0.53872945     0.11900
S743        S  0.41977996  0.59151582  0.48498060    -0.06300
C744        C  0.40918488  0.62270095  0.50842017    -0.09800
C745        C  0.38586865  0.62116909  0.53662384    -0.26400
S746        S  0.31675590  0.54279132  0.58314965    -0.03600
C747        C  0.32828131  0.51133147  0.56225365    -0.17000
C748        C  0.35277825  0.51250212  0.53715362    -0.15000
H749        H  0.39918790  0.53358680  0.49193401     0.20300
H750        H  0.33896290  0.60023462  0.58042537     0.16400
H751        H  0.37572018  0.63887205  0.55271337     0.18900
H752        H  0.36323353  0.49467424  0.52207747     0.12200
C753        C  0.28559129  0.44708201  0.35767645     0.16100
C754        C  0.29811419  0.45334529  0.31425010    -0.32900
C755        C  0.28443234  0.47175990  0.28392409     0.20500
C756        C  0.25900946  0.48293383  0.29541433     0.02700
C757        C  0.24653618  0.47680685  0.33908645    -0.22700
C758        C  0.26061404  0.45897208  0.37007160     0.11900
S759        S  0.29995537  0.42691566  0.40085740    -0.06300
C760        C  0.27252541  0.43537682  0.43654251    -0.09800
C761        C  0.25312795  0.45246586  0.41557801    -0.26400
S762        S  0.24602173  0.50505028  0.25342627    -0.03600
C763        C  0.27559757  0.49974488  0.22105023    -0.17000
C764        C  0.29410242  0.48150939  0.24159321    -0.15000
H765        H  0.31807573  0.44485551  0.30505271     0.20300
H766        H  0.22708034  0.48614262  0.34904957     0.16400
H767        H  0.23521329  0.46078443  0.43358068     0.18900
H768        H  0.31385123  0.47590829  0.22644782     0.12200
C769        C  0.25410037  0.49204066  0.79737190     0.16100
C770        C  0.24613936  0.49428887  0.84506081    -0.32900
C771        C  0.25874867  0.51485990  0.87249272     0.20500
C772        C  0.27755888  0.53320781  0.85299956     0.02700
C773        C  0.28536872  0.53108213  0.80528617    -0.22700
C774        C  0.27363674  0.50979104  0.77840520     0.11900
S775        S  0.24358310  0.46656704  0.75935856    -0.06300
C776        C  0.26655861  0.47939439  0.71836853    -0.09800
C777        C  0.28090803  0.50253460  0.73322511    -0.26400
S778        S  0.29146286  0.55585639  0.89277857    -0.03600
C779        C  0.27261420  0.53965062  0.93643444    -0.17000
C780        C  0.25594632  0.51840519  0.92041466    -0.15000
H781        H  0.23171266  0.47980887  0.86068006     0.20300
H782        H  0.30087817  0.54462676  0.79031905     0.16400
H783        H  0.29681889  0.51273111  0.71267548     0.18900
H784        H  0.24318121  0.50555977  0.94304502     0.12200
C785        C  0.38040052  0.14067386  0.98852435     0.16100
C786        C  0.36208158  0.11852486  0.98226135    -0.32900
C787        C  0.34886215  0.10774908  0.02282848     0.20500
C788        C  0.35382328  0.11837489  0.06757590     0.02700
C789        C  0.37276527  0.13976134  0.07395079    -0.22700
C790        C  0.38568756  0.15070011  0.03354929     0.11900
S791        S  0.39569428  0.15948412  0.94381031    -0.06300
C792        C  0.40939837  0.18065779  0.98662398    -0.09800
C793        C  0.40244411  0.17336018  0.03257613    -0.26400
S794        S  0.33290585  0.10556604  0.11127455    -0.03600
C795        C  0.31767535  0.08515154  0.06922121    -0.17000
C796        C  0.32834062  0.08830322  0.02376633    -0.15000
H797        H  0.35728776  0.11097038  0.94716483     0.20300
H798        H  0.37619393  0.14854271  0.10869516     0.16400
H799        H  0.40798994  0.18522589  0.06362004     0.18900
H800        H  0.31994200  0.07855743  0.99250184     0.12200
C801        C  0.35397082  0.30067719  0.80144381     0.16100
C802        C  0.34560941  0.30519694  0.75454870    -0.32900
C803        C  0.32969209  0.32883954  0.74514302     0.20500
C804        C  0.32191630  0.34679400  0.78115814     0.02700
C805        C  0.32934625  0.34167702  0.82830318    -0.22700
C806        C  0.34577853  0.31840035  0.83752072     0.11900
S807        S  0.37764824  0.27648766  0.81825309    -0.06300
C808        C  0.37639381  0.29028449  0.87441386    -0.09800
C809        C  0.35822365  0.31218648  0.87976332    -0.26400
S810        S  0.30638268  0.37641470  0.76195809    -0.03600
C811        C  0.31054117  0.36467977  0.70472313    -0.17000
C812        C  0.32272116  0.33877485  0.70110827    -0.15000
H813        H  0.35279419  0.29191356  0.72611590     0.20300
H814        H  0.32409836  0.35624955  0.85613118     0.16400
H815        H  0.35641457  0.32469007  0.91150434     0.18900
H816        H  0.32842653  0.32895477  0.66797592     0.12200
C817        C  0.37122988  0.43664173  0.03495192     0.16100
C818        C  0.39184724  0.42057667  0.01364643    -0.32900
C819        C  0.39393175  0.39266395  0.02716218     0.20500
C820        C  0.37656840  0.38124844  0.06099932     0.02700
C821        C  0.35572139  0.39728938  0.08207133    -0.22700
C822        C  0.35328613  0.42514392  0.06783866     0.11900
S823        S  0.36594431  0.47107697  0.02413906    -0.06300
C824        C  0.33878050  0.46990017  0.06330914    -0.09800
C825        C  0.33429295  0.44412603  0.08380806    -0.26400
S826        S  0.38220063  0.34671299  0.07142594    -0.03600
C827        C  0.40769026  0.34756966  0.02877425    -0.17000
C828        C  0.41174768  0.37348714  0.00856938    -0.15000
H829        H  0.40557494  0.42941955  0.98736826     0.20300
H830        H  0.34181735  0.38837252  0.10798847     0.16400
H831        H  0.31865690  0.43982182  0.11023123     0.18900
H832        H  0.42623650  0.37782320  0.98026871     0.12200
C833        C  0.86240880  0.35762671  0.05201035     0.16100
C834        C  0.88569060  0.34105142  0.06043326    -0.32900
C835        C  0.89555763  0.32450376  0.02291926     0.20500
C836        C  0.88340424  0.32520081  0.97858687     0.02700
C837        C  0.86101347  0.34262856  0.96964443    -0.22700
C838        C  0.85050536  0.35819915  0.00751485     0.11900
S839        S  0.84395931  0.37519044  0.09461900    -0.06300
C840        C  0.81967031  0.38237195  0.05212947    -0.09800
C841        C  0.82629185  0.37252714  0.00736958    -0.26400
S842        S  0.89484473  0.30023285  0.94039570    -0.03600
C843        C  0.91628990  0.28862229  0.98438645    -0.17000
C844        C  0.91488434  0.30377930  0.02609375    -0.15000
H845        H  0.89442084  0.33950349  0.09554988     0.20300
H846        H  0.85078204  0.34231992  0.93566767     0.16400
H847        H  0.81294858  0.37407518  0.97686364     0.18900
H848        H  0.92529371  0.29805694  0.05852754     0.12200
C849        C  0.57790620  0.31603812  0.99977427     0.16100
C850        C  0.60635967  0.31832285  0.00480039    -0.32900
C851        C  0.61690497  0.34422599  0.01754011     0.20500
C852        C  0.59995633  0.36689040  0.02553211     0.02700
C853        C  0.57143716  0.36463160  0.02028410    -0.22700
C854        C  0.56087560  0.33874057  0.00705182     0.11900
S855        S  0.56120683  0.28643476  0.98407204    -0.06300
C856        C  0.53091495  0.30486528  0.98665139    -0.09800
C857        C  0.53383775  0.33244524  0.99946914    -0.26400
S858        S  0.61695218  0.39622297  0.04256396    -0.03600
C859        C  0.64717480  0.37774734  0.03824691    -0.17000
C860        C  0.64393385  0.35038243  0.02443153    -0.15000
H861        H  0.61976757  0.30061033  0.99896637     0.20300
H862        H  0.55802846  0.38230571  0.02630520     0.16400
H863        H  0.51706675  0.34717157  0.00270351     0.18900
H864        H  0.66052025  0.33543892  0.02095851     0.12200
C865        C  0.63500274  0.14308938  0.50885864     0.16100
C866        C  0.64872032  0.11735435  0.50889590    -0.32900
C867        C  0.66927858  0.11304509  0.54313284     0.20500
C868        C  0.67531878  0.13319979  0.57642537     0.02700
C869        C  0.66123356  0.15845110  0.57711524    -0.22700
C870        C  0.64143709  0.16303354  0.54224714     0.11900
S871        S  0.61137119  0.15400946  0.46764170    -0.06300
C872        C  0.61105114  0.18575239  0.49547455    -0.09800
C873        C  0.62782022  0.18736699  0.53469483    -0.26400
S874        S  0.70314613  0.12609878  0.61065481    -0.03600
C875        C  0.70718468  0.09568616  0.57971473    -0.17000
C876        C  0.68734853  0.09109398  0.54544570    -0.15000
H877        H  0.64455046  0.10197138  0.48203859     0.20300
H878        H  0.66660220  0.17452464  0.60212497     0.16400
H879        H  0.63047228  0.20585632  0.55590886     0.18900
H880        H  0.68780369  0.07408236  0.52049563     0.12200
C881        C  0.41997944  0.37142799  0.53600637     0.16100
C882        C  0.44812081  0.36545253  0.53710471    -0.32900
C883        C  0.45726225  0.34141412  0.51403665     0.20500
C884        C  0.43920696  0.32394821  0.49093291     0.02700
C885        C  0.41109498  0.33031001  0.48878406    -0.22700
C886        C  0.40194307  0.35444579  0.51183648     0.11900
S887        S  0.40466546  0.39834427  0.56521979    -0.06300
C888        C  0.37357830  0.38686134  0.54439654    -0.09800
C889        C  0.37527942  0.36348398  0.51589364    -0.26400
S890        S  0.45441161  0.29518214  0.46682145    -0.03600
C891        C  0.48540763  0.30720969  0.48731037    -0.17000
C892        C  0.48381861  0.33208948  0.51154461    -0.15000
H893        H  0.46225887  0.37872406  0.55597225     0.20300
H894        H  0.39688547  0.31676178  0.47065729     0.16400
H895        H  0.35777371  0.35282816  0.50103343     0.18900
H896        H  0.50125571  0.34280201  0.52652219     0.12200
C897        C  0.51219416  0.23394843  0.75618500     0.16100
C898        C  0.51860604  0.22240920  0.71195809    -0.32900
C899        C  0.53776389  0.23641678  0.68335097     0.20500
C900        C  0.55083491  0.26024171  0.69864647     0.02700
C901        C  0.54453617  0.27167832  0.74294932    -0.22700
C902        C  0.52458350  0.25830026  0.77070896     0.11900
S903        S  0.48816904  0.22124325  0.79508512    -0.06300
C904        C  0.49422582  0.24965772  0.83017093    -0.09800
C905        C  0.51418852  0.26748277  0.81289969    -0.26400
S906        S  0.57195631  0.27520614  0.65726683    -0.03600
C907        C  0.56213094  0.24976614  0.61842928    -0.17000
C908        C  0.54418006  0.23035966  0.63729433    -0.15000
H909        H  0.50828374  0.20395749  0.69955226     0.20300
H910        H  0.55389462  0.29085577  0.75441839     0.16400
H911        H  0.52064311  0.28634787  0.83032119     0.18900
H912        H  0.53494083  0.21370956  0.61727614     0.12200
C913        C  0.48473929  0.24101450  0.27637301     0.16100
C914        C  0.46428161  0.24557713  0.24241493    -0.32900
C915        C  0.47036019  0.23862179  0.19531570     0.20500
C916        C  0.49547076  0.22695444  0.18303438     0.02700
C917        C  0.51556311  0.22157712  0.21716402    -0.22700
C918        C  0.50975717  0.22916400  0.26397400     0.11900
S919        S  0.48303074  0.25227629  0.33346089    -0.06300
C920        C  0.51626752  0.24091326  0.34054803    -0.09800
C921        C  0.52789414  0.22872768  0.30098086    -0.26400
S922        S  0.50023158  0.22263098  0.12386023    -0.03600
C923        C  0.46819162  0.23700072  0.11515491    -0.17000
C924        C  0.45435843  0.24413617  0.15637866    -0.15000
H925        H  0.44507513  0.25557774  0.25185769     0.20300
H926        H  0.53545521  0.21324493  0.20718925     0.16400
H927        H  0.54912169  0.22210939  0.29830485     0.18900
H928        H  0.43445070  0.25418081  0.15763234     0.12200
C929        C  0.65020987  0.29462838  0.26905246     0.16100
C930        C  0.65592128  0.30031988  0.22135571    -0.32900
C931        C  0.68157817  0.31160439  0.21008546     0.20500
C932        C  0.70103872  0.31657936  0.24462035     0.02700
C933        C  0.69561965  0.31003917  0.29246411    -0.22700
C934        C  0.66958048  0.29923935  0.30396379     0.11900
S935        S  0.61891937  0.28458610  0.28979601    -0.06300
C936        C  0.63166766  0.28659088  0.34652165    -0.09800
C937        C  0.65911191  0.29429964  0.34876807    -0.26400
S938        S  0.72879752  0.33499541  0.22441913    -0.03600
C939        C  0.71381152  0.33615303  0.16917928    -0.17000
C940        C  0.68898831  0.32232165  0.16690375    -0.15000
H941        H  0.64036395  0.29765997  0.19448715     0.20300
H942        H  0.71035469  0.31479570  0.31982385     0.16400
H943        H  0.67022267  0.29775970  0.38133830     0.18900
H944        H  0.67537152  0.32321571  0.13667894     0.12200
C945        C  0.85103293  0.61196445  0.54239289     0.16100
C946        C  0.87783337  0.62318813  0.54291341    -0.32900
C947        C  0.88296034  0.64706422  0.51489935     0.20500
C948        C  0.86246933  0.65839992  0.48687444     0.02700
C949        C  0.83613129  0.64726432  0.48627832    -0.22700
C950        C  0.83085995  0.62432890  0.51509040     0.11900
S951        S  0.83920972  0.58403439  0.57506634    -0.06300
C952        C  0.80680437  0.59039106  0.55268874    -0.09800
C953        C  0.80583103  0.61233546  0.52106594    -0.26400
S954        S  0.87098114  0.68825994  0.45859448    -0.03600
C955        C  0.90253526  0.68666219  0.48543040    -0.17000
C956        C  0.90638676  0.66328180  0.51394615    -0.15000
H957        H  0.89360234  0.61436871  0.56529040     0.20300
H958        H  0.81999516  0.65686581  0.46561948     0.16400
H959        H  0.78741879  0.61933835  0.50321067     0.18900
H960        H  0.92419029  0.65972816  0.53595727     0.12200
C961        C  0.62458104  0.39893009  0.51115050     0.16100
C962        C  0.63093681  0.42719024  0.50946389    -0.32900
C963        C  0.65365326  0.43619238  0.53539923     0.20500
C964        C  0.66957541  0.41790490  0.56159679     0.02700
C965        C  0.66288544  0.38970251  0.56403385    -0.22700
C966        C  0.64000974  0.38072133  0.53835864     0.11900
S967        S  0.59886900  0.38364478  0.47986087    -0.06300
C968        C  0.60876893  0.35241969  0.50414667    -0.09800
C969        C  0.63077389  0.35403231  0.53497104    -0.26400
S970        S  0.69686800  0.43294084  0.58928113    -0.05200
C971        C  0.68623071  0.46419431  0.56613117    -0.17000
C972        C  0.66296102  0.46282686  0.53831370    -0.15000
H973        H  0.61886390  0.44153484  0.48834500     0.20300
H974        H  0.67517265  0.37529897  0.58465686     0.16400
H975        H  0.64029248  0.33638934  0.55233622     0.18900
H976        H  0.65335285  0.48049073  0.52114621     0.12200
C977        C  0.57627955  0.64673145  0.47338467     0.16100
C978        C  0.60421781  0.64004839  0.46995427    -0.32900
C979        C  0.61302728  0.61522335  0.49103165     0.20500
C980        C  0.59481823  0.59771917  0.51425882     0.02700
C981        C  0.56672821  0.60384140  0.51599821    -0.22700
C982        C  0.55797738  0.62876311  0.49527528     0.11900
S983        S  0.56181983  0.67694900  0.45366770    -0.06300
C984        C  0.53079647  0.66497888  0.47455179    -0.09800
C985        C  0.53175884  0.63895197  0.49534640    -0.26400
S986        S  0.61002544  0.57070464  0.54329962    -0.03600
C987        C  0.64118673  0.58298182  0.52349925    -0.17000
C988        C  0.63965565  0.60647076  0.49530582    -0.15000
H989        H  0.61864473  0.65410965  0.45319201     0.20300
H990        H  0.55245870  0.59033281  0.53445058     0.16400
H991        H  0.51419265  0.62823465  0.51029248     0.18900
H992        H  0.65726253  0.61780176  0.48196031     0.12200
C993        C  0.75178267  0.51529325  0.34819863     0.16100
C994        C  0.75584963  0.51360650  0.29889631    -0.32900
C995        C  0.75482277  0.48716644  0.27794128     0.20500
C996        C  0.74987642  0.46359200  0.30490443     0.02700
C997        C  0.74629366  0.46523178  0.35394140    -0.22700
C998        C  0.74735029  0.49148464  0.37471691     0.11900
S999        S  0.75127671  0.54524434  0.38102971    -0.06300
C1000       C  0.74551056  0.52513932  0.43073606    -0.09800
C1001       C  0.74384980  0.49697722  0.42170440    -0.26400
S1002       S  0.74645062  0.43388660  0.27305801    -0.03600
C1003       C  0.75191546  0.45318253  0.22254709    -0.17000
C1004       C  0.75647441  0.48119333  0.23040591    -0.15000
H1005       H  0.75911697  0.53208953  0.27770934     0.20300
H1006       H  0.74219280  0.44683635  0.37496096     0.16400
H1007       H  0.74012136  0.48117961  0.44837147     0.18900
H1008       H  0.75869070  0.49661698  0.20266392     0.12200
C1009       C  0.75976446  0.48469415  0.79242791     0.16100
C1010       C  0.77184123  0.47680470  0.83553814    -0.32900
C1011       C  0.75690091  0.45881867  0.86534041     0.20500
C1012       C  0.73134488  0.44883613  0.85251898     0.02700
C1013       C  0.71926338  0.45687419  0.80989226    -0.22700
C1014       C  0.73393360  0.47506309  0.78062691     0.11900
S1015       S  0.77393437  0.50660203  0.75087455    -0.06300
C1016       C  0.74428412  0.50310057  0.71845486    -0.09800
C1017       C  0.72500798  0.48559496  0.73867005    -0.26400
S1018       S  0.71631210  0.42742749  0.89321216    -0.03600
C1019       C  0.74448736  0.43223571  0.92856884    -0.17000
C1020       C  0.76448177  0.44946091  0.90930615    -0.15000
H1021       H  0.79183366  0.48453953  0.84563743     0.20300
H1022       H  0.69906717  0.44949712  0.80013823     0.16400
H1023       H  0.70522919  0.48080885  0.72330789     0.18900
H1024       H  0.78330409  0.45523698  0.92697000     0.12200
C1025       C  0.66692583  0.85812248  0.04534380     0.16100
C1026       C  0.64117857  0.84481595  0.04566709    -0.32900
C1027       C  0.63711923  0.82286640  0.01342793     0.20500
C1028       C  0.65756369  0.81515617  0.98166812     0.02700
C1029       C  0.68287276  0.82865167  0.98080472    -0.22700
C1030       C  0.68715287  0.84980647  0.01370405     0.11900
S1031       S  0.67750827  0.88350784  0.08408122    -0.06300
C1032       C  0.70954296  0.88186298  0.05785671    -0.09800
C1033       C  0.71136980  0.86321175  0.02077221    -0.26400
S1034       S  0.65059259  0.78620672  0.94962228    -0.03600
C1035       C  0.61982026  0.78374970  0.97948639    -0.17000
C1036       C  0.61507432  0.80498873  0.01184321    -0.15000
H1037       H  0.62552282  0.85042169  0.07130253     0.20300
H1038       H  0.69913664  0.82191874  0.95712685     0.16400
H1039       H  0.72995201  0.85911253  0.00066033     0.18900
H1040       H  0.59781968  0.80568481  0.03616546     0.12200
C1041       C  0.46547856  0.62486066  0.02521060     0.16100
C1042       C  0.44906867  0.60416026  0.04558739    -0.32900
C1043       C  0.42074786  0.60540104  0.03733063     0.20500
C1044       C  0.40931871  0.62599581  0.00918684     0.02700
C1045       C  0.42569991  0.64688544  0.98924481    -0.22700
C1046       C  0.45395202  0.64600483  0.99837647     0.11900
S1047       S  0.50029009  0.62668940  0.03029657    -0.06300
C1048       C  0.49922023  0.65668912  0.99709187    -0.09800
C1049       C  0.47322935  0.66459482  0.98263355    -0.26400
S1050       S  0.37453848  0.62380181  0.00334315    -0.03600
C1051       C  0.37530568  0.59532376  0.04030849    -0.17000
C1052       C  0.40128734  0.58785064  0.05560619    -0.15000
H1053       H  0.45798390  0.58786758  0.06720884     0.20300
H1054       H  0.41676538  0.66326724  0.96785451     0.16400
H1055       H  0.46881559  0.68250259  0.96062768     0.18900
H1056       H  0.40562428  0.57079051  0.07954626     0.12200
C1057       C  0.55481468  0.72455732  0.20777111     0.16100
C1058       C  0.55284652  0.72004079  0.25676568    -0.32900
C1059       C  0.52928805  0.72992346  0.28021723     0.20500
C1060       C  0.50894428  0.74446217  0.25645473     0.02700
C1061       C  0.51108915  0.74927376  0.20760223    -0.22700
C1062       C  0.53419329  0.73859676  0.18390355     0.11900
S1063       S  0.58040721  0.71194639  0.17184153    -0.06300
C1064       C  0.56262417  0.72501192  0.12412959    -0.09800
C1065       C  0.53858253  0.73890440  0.13603127    -0.26400
S1066       S  0.48083693  0.75249130  0.29052368    -0.03600
C1067       C  0.49645089  0.73554966  0.33680922    -0.17000
C1068       C  0.52216251  0.72475842  0.32633987    -0.15000
H1069       H  0.56838003  0.70822653  0.27542693     0.20300
H1070       H  0.49481636  0.75972610  0.18847244     0.16400
H1071       H  0.52452732  0.74801595  0.11069432     0.18900
H1072       H  0.53417973  0.71216138  0.35047585     0.12200
C1073       C  0.47708650  0.71166348  0.70404555     0.16100
C1074       C  0.48023994  0.70185054  0.75052557    -0.32900
C1075       C  0.50211460  0.71234255  0.77715053     0.20500
C1076       C  0.51966739  0.73235110  0.75900150     0.02700
C1077       C  0.51665651  0.74199682  0.71233864    -0.22700
C1078       C  0.49523066  0.73090699  0.68523685     0.11900
S1079       S  0.45260825  0.70057992  0.66517942    -0.06300
C1080       C  0.46755760  0.72134451  0.62263995    -0.09800
C1081       C  0.48997957  0.73635681  0.63843922    -0.26400
S1082       S  0.54498937  0.74229941  0.79726378    -0.03600
C1083       C  0.53225647  0.71858171  0.83733603    -0.17000
C1084       C  0.50945342  0.70416500  0.82184794    -0.15000
H1085       H  0.46659523  0.68622673  0.76498058     0.20300
H1086       H  0.53077252  0.75704347  0.69743900     0.16400
H1087       H  0.50217032  0.75011772  0.61644238     0.18900
H1088       H  0.49904435  0.68818883  0.84212171     0.12200
C1089       C  0.68108455  0.65462660  0.72329114     0.16100
C1090       C  0.66348323  0.67325988  0.74649878    -0.32900
C1091       C  0.66365396  0.67336018  0.79625038     0.20500
C1092       C  0.68154064  0.65673676  0.82186920     0.02700
C1093       C  0.69948719  0.63849469  0.79864527    -0.22700
C1094       C  0.69831001  0.63736641  0.74902827     0.11900
S1095       S  0.68055069  0.64787303  0.66377724    -0.06300
C1096       C  0.70277521  0.62075798  0.67413105    -0.09800
C1097       C  0.71079131  0.61793973  0.72096646    -0.26400
S1098       S  0.67641956  0.65751516  0.88184876    -0.03600
C1099       C  0.64906477  0.67937243  0.87212503    -0.17000
C1100       C  0.64501527  0.68644970  0.82499608    -0.15000
H1101       H  0.64885880  0.68568314  0.72674789     0.20300
H1102       H  0.71238853  0.62432245  0.81855734     0.16400
H1103       H  0.72339043  0.60110406  0.73434270     0.18900
H1104       H  0.62784167  0.69864093  0.81214280     0.12200
C1105       C  0.67608340  0.53797942  0.02650112     0.16100
C1106       C  0.66666807  0.55929543  0.99701448    -0.32900
C1107       C  0.64895023  0.57906975  0.01682163     0.20500
C1108       C  0.64136651  0.57821001  0.06424293     0.02700
C1109       C  0.65044843  0.55653100  0.09368509    -0.22700
C1110       C  0.66774311  0.53630746  0.07351242     0.11900
S1111       S  0.69785682  0.51220888  0.00889884    -0.06300
C1112       C  0.69517736  0.49845673  0.06503338    -0.09800
C1113       C  0.67839716  0.51333089  0.09574570    -0.26400
S1114       S  0.62074124  0.60526124  0.08155571    -0.03600
C1115       C  0.62163413  0.61700336  0.02382869    -0.17000
C1116       C  0.63743787  0.60102326  0.99343769    -0.15000
H1117       H  0.67283861  0.56038747  0.96012416     0.20300
H1118       H  0.64430109  0.55545398  0.13057673     0.16400
H1119       H  0.67441390  0.50773172  0.13233350     0.18900
H1120       H  0.64078417  0.60562085  0.95624369     0.12200
loop_ 
_geom_bond_atom_site_label_1 
_geom_bond_atom_site_label_2 
_geom_bond_distance 
_geom_bond_site_symmetry_2 
_ccdc_geom_bond_type 
O1           C16   1.265       .  A
O1           Al9   1.879       .  S
C2           O12   1.257       .  A
C2            O3   1.267       .  A
C2         C1064   1.473       .  S
O3           Al5   1.936       .  S
O4            C6   1.255       .  A
O4           Al5   1.910       .  S
Al5          O13   1.873   1_554  S
Al5          O15   1.962   1_554  S
Al5          O14   1.774   1_554  S
C6           O19   1.257   1_554  A
C6         C1115   1.469       .  S
O7           C17   1.265       .  A
O7           Al9   1.883       .  S
O8           C21   1.260       .  A
O8          Al18   1.921       .  S
Al9          O22   1.918       .  S
Al9          O19   1.919       .  S
Al9          O14   1.776       .  S
O10          C17   1.277       .  A
O10         Al18   1.963       .  S
O11          C20   1.265       .  A
O11         Al18   1.943       .  S
O12         Al18   1.869   1_554  S
O13          C20   1.255       .  A
O14         Al18   1.779       .  S
O15          C16   1.276       .  A
C16        C1099   1.466       .  S
C17        C1048   1.467       .  S
C20        C1035   1.473       .  S
C21          O22   1.258       .  A
C21        C1083   1.470       .  S
O23          C38   1.263       .  A
O23         Al31   1.876       .  S
C24          O34   1.257       .  A
C24          O25   1.269       .  A
C24        C1000   1.474       .  S
O25         Al27   1.946       .  S
O26          C28   1.253       .  A
O26         Al27   1.893       .  S
Al27         O35   1.866       .  S
Al27         O37   1.959       .  S
Al27         O36   1.780       .  S
C28          O41   1.254       .  A
C28         C987   1.465       .  S
O29          C39   1.263       .  A
O29         Al31   1.881       .  S
O30          C43   1.263       .  A
O30         Al40   1.925       .  S
Al31         O44   1.896       .  S
Al31         O41   1.904       .  S
Al31         O36   1.774       .  S
O32          C39   1.273       .  A
O32         Al40   1.958       .  S
O33          C42   1.265       .  A
O33         Al40   1.950       .  S
O34         Al40   1.864       .  S
O35          C42   1.254       .  A
O36         Al40   1.786       .  S
O37          C38   1.275       .  A
C38        C1096   1.468       .  S
C39         C971   1.465       .  S
C42         C952   1.480       .  S
C43          O44   1.258       .  A
C43        C1016   1.470       .  S
O45          C60   1.262       .  A
O45         Al53   1.918       .  S
C46          O56   1.271       .  A
C46          O47   1.260       .  A
C46         C907   1.465       .  S
O47         Al49   1.868       .  S
O48          C50   1.270       .  A
O48         Al49   1.954       .  S
Al49         O57   1.930       .  S
Al49         O59   1.908       .  S
Al49         O58   1.789       .  S
C50          O63   1.262       .  A
C50         C891   1.470       .  S
O51          C61   1.257       .  A
O51         Al53   1.914       .  S
O52          C65   1.273       .  A
O52         Al62   1.961       .  S
Al53         O66   1.879       .  S
Al53         O63   1.892       .  S
Al53         O58   1.776       .  S
O54          C61   1.253       .  A
O54         Al62   1.884       .  S
O55          C64   1.254       .  A
O55         Al62   1.880       .  S
O56         Al62   1.945       .  S
O57          C64   1.260       .  A
O58         Al62   1.780       .  S
O59          C60   1.262       .  A
C60         C920   1.459       .  S
C61         C968   1.469       .  S
C64         C872   1.467       .  S
C65          O66   1.262       .  A
C65         C936   1.478       .  S
O67          C82   1.256       .  A
O67         Al75   1.879       .  S
C68          O78   1.267       .  A
C68          O69   1.266   1_556  A
C68        C1019   1.469       .  S
O69         Al71   1.922       .  S
O70          C72   1.258       .  A
O70         Al71   1.892       .  S
Al71         O79   1.932       .  S
Al71         O81   1.931       .  S
Al71         O80   1.788       .  S
C72          O85   1.262       .  A
C72        C1112   1.469       .  S
O73          C83   1.260       .  A
O73         Al75   1.913       .  S
O74          C87   1.270       .  A
O74         Al84   1.929       .  S
Al75         O88   1.904       .  S
Al75         O85   1.919       .  S
Al75         O80   1.779       .  S
O76          C83   1.257       .  A
O76         Al84   1.903       .  S
O77          C86   1.260       .  A
O77         Al84   1.901       .  S
O78         Al84   1.908   1_556  S
O79          C86   1.265       .  A
O80         Al84   1.780       .  S
O81          C82   1.264       .  A
C82        C1003   1.467       .  S
C83         C859   1.473       .  S
C86         C840   1.474       .  S
C87          O88   1.265       .  A
C87         C939   1.466       .  S
O89         C104   1.264       .  A
O89         Al97   1.882       .  S
C90         O100   1.256       .  A
C90          O91   1.270       .  A
C90         C923   1.470       .  S
O91         Al93   1.945       .  S
O92          C94   1.255       .  A
O92         Al93   1.902       .  S
Al93        O101   1.886   1_554  S
Al93        O103   1.952   1_554  S
Al93        O102   1.784   1_554  S
C94         O107   1.257   1_554  A
C94         C827   1.475       .  S
O95         C105   1.265       .  A
O95         Al97   1.894       .  S
O96         C109   1.260       .  A
O96        Al106   1.914       .  S
Al97        O110   1.914       .  S
Al97        O107   1.909       .  S
Al97        O102   1.780       .  S
O98         C105   1.272       .  A
O98        Al106   1.945       .  S
O99         C108   1.260       .  A
O99        Al106   1.923       .  S
O100       Al106   1.858   1_554  S
O101        C108   1.255       .  A
O102       Al106   1.784       .  S
O103        C104   1.274       .  A
C104        C808   1.464       .  S
C105        C856   1.472       .  S
C108        C792   1.468       .  S
C109        O110   1.260       .  A
C109        C904   1.468       .  S
O111        C126   1.261       .  A
O111       Al119   1.875       .  S
C112        O122   1.260       .  A
C112        O113   1.269       .  A
C112        C760   1.462       .  S
O113       Al115   1.934       .  S
O114        C116   1.252       .  A
O114       Al115   1.891       .  S
Al115       O123   1.879       .  S
Al115       O125   1.952       .  S
Al115       O124   1.779       .  S
C116        O129   1.257       .  A
C116        C888   1.474       .  S
O117        C127   1.261       .  A
O117       Al119   1.887       .  S
O118        C131   1.264       .  A
O118       Al128   1.921       .  S
Al119       O132   1.919       .  S
Al119       O129   1.915       .  S
Al119       O124   1.776       .  S
O120        C127   1.272       .  A
O120       Al128   1.958       .  S
O121        C130   1.261       .  A
O121       Al128   1.940       .  S
O122       Al128   1.872       .  S
O123        C130   1.254       .  A
O124       Al128   1.790       .  S
O125        C126   1.273       .  A
C126        C811   1.469       .  S
C127        C747   1.468       .  S
C130        C728   1.477       .  S
C131        O132   1.262       .  A
C131        C776   1.469       .  S
O133        C148   1.258       .  A
O133       Al141   1.909       .  S
C134        O144   1.268       .  A
C134        O135   1.258       .  A
C134       C1080   1.474       .  S
O135       Al137   1.877       .  S
O136        C138   1.274       .  A
O136       Al137   1.959       .  S
Al137       O145   1.943       .  S
Al137       O147   1.916       .  S
Al137       O146   1.789       .  S
C138        O151   1.262       .  A
C138        C984   1.466       .  S
O139        C149   1.256       .  A
O139       Al141   1.914       .  S
O140        C153   1.275       .  A
O140       Al150   1.961       .  S
Al141       O154   1.882       .  S
Al141       O151   1.879       .  S
Al141       O146   1.780       .  S
O142        C149   1.253       .  A
O142       Al150   1.890       .  S
O143        C152   1.256       .  A
O143       Al150   1.878       .  S
O144       Al150   1.937       .  S
O145        C152   1.265       .  A
O146       Al150   1.780       .  S
O147        C148   1.260       .  A
C148       C1067   1.463       .  S
C149        C744   1.468       .  S
C152        C696   1.477       .  S
C153        O154   1.263       .  A
C153        C715   1.470       .  S
O155        C170   1.260       .  A
O155       Al163   1.910       .  S
C156        O166   1.270   1_556  A
C156        O157   1.261   1_556  A
C156        C779   1.471       .  S
O157       Al159   1.876       .  S
O158        C160   1.273       .  A
O158       Al159   1.961       .  S
Al159       O167   1.934       .  S
Al159       O169   1.919       .  S
Al159       O168   1.787       .  S
C160        O173   1.262       .  A
C160        C824   1.469       .  S
O161        C171   1.256       .  A
O161       Al163   1.911       .  S
O162        C175   1.275       .  A
O162       Al172   1.958       .  S
Al163       O176   1.880       .  S
Al163       O173   1.889       .  S
Al163       O168   1.779       .  S
O164        C171   1.253       .  A
O164       Al172   1.892       .  S
O165        C174   1.254       .  A
O165       Al172   1.883       .  S
O166       Al172   1.940       .  S
O167        C174   1.262       .  A
O168       Al172   1.780       .  S
O169        C170   1.263       .  A
C170        C763   1.468       .  S
C171       C1051   1.470       .  S
C174        C683   1.473       .  S
C175        O176   1.262       .  A
C175        C712   1.472       .  S
O177        C192   1.260       .  A
O177       Al185   1.878       .  S
C178        O188   1.258       .  A
C178        O179   1.269       .  A
C178        C619   1.463       .  S
O179       Al181   1.937       .  S
O180        C182   1.254       .  A
O180       Al181   1.887       .  S
Al181       O189   1.881       .  S
Al181       O191   1.950       .  S
Al181       O190   1.772       .  S
C182        O195   1.260       .  A
C182        C664   1.475       .  S
O183        C193   1.260       .  A
O183       Al185   1.871       .  S
O184        C197   1.262       .  A
O184       Al194   1.909       .  S
Al185       O198   1.914       .  S
Al185       O195   1.929       .  S
Al185       O190   1.775       .  S
O186        C193   1.271       .  A
O186       Al194   1.956       .  S
O187        C196   1.263       .  A
O187       Al194   1.945       .  S
O188       Al194   1.866       .  S
O189        C196   1.256       .  A
O190       Al194   1.791       .  S
O191        C192   1.272       .  A
C192        C651   1.468       .  S
C193        C600   1.466   1_455  S
C196        C731   1.478       .  S
C197        O198   1.262       .  A
C197        C635   1.459       .  S
O199        C214   1.261       .  A
O199       Al207   1.877       .  S
C200        O210   1.259   1_556  A
C200        O201   1.270   1_556  A
C200        C568   1.462       .  S
O201       Al203   1.944       .  S
O202        C204   1.256       .  A
O202       Al203   1.896       .  S
Al203       O211   1.891       .  S
Al203       O213   1.956       .  S
Al203       O212   1.775       .  S
C204        O217   1.259       .  A
C204        C552   1.471       .  S
O205        C215   1.259   1_545  A
O205       Al207   1.871       .  S
O206        C219   1.262       .  A
O206       Al216   1.916       .  S
Al207       O220   1.918       .  S
Al207       O217   1.916       .  S
Al207       O212   1.772       .  S
O208        C215   1.272       .  A
O208       Al216   1.961   1_565  S
O209        C218   1.262       .  A
O209       Al216   1.929       .  S
O210       Al216   1.864       .  S
O211        C218   1.256       .  A
O212       Al216   1.784       .  S
O213        C214   1.273       .  A
C214        C648   1.466       .  S
C215        C539   1.464       .  S
C218        C795   1.467       .  S
C219        O220   1.262       .  A
C219        C587   1.465   1_545  S
O221        C236   1.259       .  A
O221       Al229   1.913       .  S
C222        O232   1.270       .  A
C222        O223   1.258       .  A
C222        C504   1.470       .  S
O223       Al225   1.870   1_554  S
O224        C226   1.275       .  A
O224       Al225   1.967       .  S
Al225       O233   1.943       .  S
Al225       O235   1.923       .  S
Al225       O234   1.785       .  S
C226        O239   1.262       .  A
C226        C472   1.471   1_456  S
O227        C237   1.257   1_556  A
O227       Al229   1.905       .  S
O228        C241   1.273       .  A
O228       Al238   1.954   1_556  S
Al229       O242   1.883       .  S
Al229       O239   1.880       .  S
Al229       O234   1.775       .  S
O230        C237   1.254       .  A
O230       Al238   1.892       .  S
O231        C240   1.253       .  A
O231       Al238   1.876   1_556  S
O232       Al238   1.942       .  S
O233        C240   1.264       .  A
O234       Al238   1.780   1_556  S
O235        C236   1.262       .  A
C236        C520   1.472       .  S
C237        C536   1.464       .  S
C240        C680   1.472       .  S
C241        O242   1.264       .  A
C241        C488   1.469       .  S
O243        C258   1.257       .  A
O243       Al251   1.900       .  S
C244        O254   1.266       .  A
C244        O245   1.256       .  A
C244        C584   1.468       .  S
O245       Al247   1.870       .  S
O246        C248   1.275       .  A
O246       Al247   1.959       .  S
Al247       O255   1.952       .  S
Al247       O257   1.919       .  S
Al247       O256   1.786       .  S
C248        O261   1.265       .  A
C248        C667   1.474   1_565  S
O249        C259   1.258       .  A
O249       Al251   1.918       .  S
O250        C263   1.272       .  A
O250       Al260   1.947       .  S
Al251       O264   1.897       .  S
Al251       O261   1.894       .  S
Al251       O256   1.779       .  S
O252        C259   1.256       .  A
O252       Al260   1.899       .  S
O253        C262   1.256       .  A
O253       Al260   1.880       .  S
O254       Al260   1.930       .  S
O255        C262   1.267       .  A
O256       Al260   1.775       .  S
O257        C258   1.261       .  A
C258        C571   1.464       .  S
C259        C459   1.471       .  S
C262        C699   1.478       .  S
C263        O264   1.265       .  A
C263        C491   1.468       .  S
O265        C280   1.266       .  A
O265       Al273   1.878       .  S
C266        O276   1.256       .  A
C266        O267   1.269       .  A
C266        C523   1.474       .  S
O267       Al269   1.940       .  S
O268        C270   1.250       .  A
O268       Al269   1.891       .  S
Al269       O277   1.860       .  S
Al269       O279   1.972       .  S
Al269       O278   1.778       .  S
C270        O283   1.252       .  A
C270        C440   1.469       .  S
O271        C281   1.265   1_655  A
O271       Al273   1.881       .  S
O272        C285   1.259       .  A
O272       Al282   1.926       .  S
Al273       O286   1.901       .  S
Al273       O283   1.909       .  S
Al273       O278   1.781       .  S
O274        C281   1.277       .  A
O274       Al282   1.960   1_455  S
O275        C284   1.263       .  A
O275       Al282   1.944       .  S
O276       Al282   1.866       .  S
O277        C284   1.252       .  A
O278       Al282   1.793       .  S
O279        C280   1.280       .  A
C280        C424   1.475       .  S
C281        C456   1.460       .  S
C284        C955   1.476       .  S
C285        O286   1.254       .  A
C285        C507   1.467   1_655  S
O287        C302   1.263       .  A
O287       Al295   1.886       .  S
C288        O298   1.259   1_556  A
C288        O289   1.269       .  A
C288        C392   1.476       .  S
O289       Al291   1.942   1_556  S
O290        C292   1.252       .  A
O290       Al291   1.885       .  S
Al291       O299   1.868       .  S
Al291       O301   1.959       .  S
Al291       O300   1.778       .  S
C292        O305   1.259       .  A
C292        C475   1.472       .  S
O293        C303   1.265       .  A
O293       Al295   1.887       .  S
O294        C307   1.265       .  A
O294       Al304   1.930       .  S
Al295       O308   1.913       .  S
Al295       O305   1.927       .  S
Al295       O300   1.779       .  S
O296        C303   1.273       .  A
O296       Al304   1.951       .  S
O297        C306   1.265       .  A
O297       Al304   1.948       .  S
O298       Al304   1.879       .  S
O299        C306   1.253       .  A
O300       Al304   1.789       .  S
O301        C302   1.274       .  A
C302        C427   1.470       .  S
C303        C376   1.470   1_565  S
C306       C1032   1.475       .  S
C307        O308   1.260       .  A
C307        C408   1.477       .  S
O309        C324   1.262       .  A
O309       Al317   1.915       .  S
C310        O320   1.268       .  A
C310        O311   1.259       .  A
C310        C632   1.464       .  S
O311       Al313   1.870   1_554  S
O312        C314   1.270       .  A
O312       Al313   1.951   1_455  S
Al313       O321   1.929       .  S
Al313       O323   1.909       .  S
Al313       O322   1.787       .  S
C314        O327   1.260   1_455  A
C314        C555   1.469   1_556  S
O315        C325   1.257   1_556  A
O315       Al317   1.904       .  S
O316        C329   1.268       .  A
O316       Al326   1.938   1_556  S
Al317       O330   1.893       .  S
Al317       O327   1.888       .  S
Al317       O322   1.774       .  S
O318        C325   1.256       .  A
O318       Al326   1.897       .  S
O319        C328   1.256       .  A
O319       Al326   1.890   1_556  S
O320       Al326   1.931       .  S
O321        C328   1.261       .  A
O322       Al326   1.781   1_556  S
O323        C324   1.261       .  A
C324        C616   1.466       .  S
C325        C379   1.463       .  S
C328        C843   1.467       .  S
C329        O330   1.263       .  A
C329        C360   1.468       .  S
O331        C346   1.261       .  A
O331       Al339   1.916       .  S
C332        O342   1.269       .  A
C332        O333   1.260       .  A
C332        C411   1.473       .  S
O333       Al335   1.882       .  S
O334        C336   1.270       .  A
O334       Al335   1.948   1_565  S
Al335       O343   1.935       .  S
Al335       O345   1.922       .  S
Al335       O344   1.788       .  S
C336        O349   1.261   1_565  A
C336        C443   1.466       .  S
O337        C347   1.258       .  A
O337       Al339   1.911       .  S
O338        C351   1.270       .  A
O338       Al348   1.944       .  S
Al339       O352   1.895       .  S
Al339       O349   1.886       .  S
Al339       O344   1.775       .  S
O340        C347   1.254       .  A
O340       Al348   1.883       .  S
O341        C350   1.254       .  A
O341       Al348   1.877       .  S
O342       Al348   1.942       .  S
O343        C350   1.263       .  A
O344       Al348   1.779       .  S
O345        C346   1.263       .  A
C346        C395   1.470       .  S
C347        C603   1.459       .  S
C350        C875   1.469       .  S
C351        O352   1.263       .  A
C351        C363   1.470       .  S
C353        S359   1.710       .  A
C353        C358   1.387       .  A
C353        C354   1.402       .  A
C354        C355   1.404       .  A
C354        H365   1.084       .  S
C355        C364   1.372       .  A
C355        C356   1.387       .  A
C356        S362   1.709       .  A
C356        C357   1.402       .  A
C357        C358   1.403       .  A
C357        H366   1.084       .  S
C358        C361   1.371       .  A
S359        C360   1.721       .  A
C360        C361   1.386       .  A
C361        H367   1.084       .  S
S362        C363   1.722       .  A
C363        C364   1.386       .  A
C364        H368   1.084       .  S
C369        S375   1.709       .  A
C369        C374   1.387       .  A
C369        C370   1.402       .  A
C370        C371   1.403       .  A
C370        H381   1.086       .  S
C371        C380   1.371       .  A
C371        C372   1.388       .  A
C372        S378   1.706       .  A
C372        C373   1.400       .  A
C373        C374   1.401       .  A
C373        H382   1.086       .  S
C374        C377   1.368       .  A
S375        C376   1.723       .  A
C376        C377   1.386       .  A
C377        H383   1.085   1_545  S
S378        C379   1.720       .  A
C379        C380   1.385       .  A
C380        H384   1.085       .  S
C385        S391   1.714       .  A
C385        C390   1.386       .  A
C385        C386   1.402       .  A
C386        C387   1.405       .  A
C386        H397   1.084       .  S
C387        C396   1.369       .  A
C387        C388   1.387       .  A
C388        S394   1.716   1_565  A
C388        C389   1.404       .  A
C389        C390   1.406       .  A
C389        H398   1.084   1_565  S
C390        C393   1.371       .  A
S391        C392   1.722       .  A
C392        C393   1.390       .  A
C393        H399   1.084       .  S
S394        C395   1.721       .  A
C395        C396   1.386   1_545  A
C396        H400   1.084       .  S
C401        S407   1.719       .  A
C401        C406   1.386   1_565  A
C401        C402   1.405       .  A
C402        C403   1.407   1_565  A
C402        H413   1.084       .  S
C403        C412   1.373       .  A
C403        C404   1.387       .  A
C404        S410   1.713       .  A
C404        C405   1.402       .  A
C405        C406   1.405       .  A
C405        H414   1.084       .  S
C406        C409   1.369   1_545  A
S407        C408   1.722       .  A
C408        C409   1.389       .  A
C409        H415   1.084       .  S
S410        C411   1.722       .  A
C411        C412   1.388       .  A
C412        H416   1.084       .  S
C417        S423   1.704       .  A
C417        C422   1.387       .  A
C417        C418   1.403       .  A
C418        C419   1.402       .  A
C418        H429   1.084       .  S
C419        C428   1.374       .  A
C419        C420   1.387       .  A
C420        S426   1.709       .  A
C420        C421   1.405       .  A
C421        C422   1.405       .  A
C421        H430   1.084       .  S
C422        C425   1.378       .  A
S423        C424   1.725       .  A
C424        C425   1.388       .  A
C425        H431   1.084       .  S
S426        C427   1.723       .  A
C427        C428   1.386       .  A
C428        H432   1.084       .  S
C433        S439   1.708       .  A
C433        C438   1.387       .  A
C433        C434   1.401       .  A
C434        C435   1.402       .  A
C434        H445   1.085       .  S
C435        C444   1.369       .  A
C435        C436   1.387       .  A
C436        S442   1.709       .  A
C436        C437   1.402       .  A
C437        C438   1.403       .  A
C437        H446   1.085       .  S
C438        C441   1.370       .  A
S439        C440   1.722       .  A
C440        C441   1.386       .  A
C441        H447   1.084       .  S
S442        C443   1.721       .  A
C443        C444   1.385       .  A
C444        H448   1.084       .  S
C449        S455   1.708       .  A
C449        C454   1.388       .  A
C449        C450   1.401       .  A
C450        C451   1.402       .  A
C450        H461   1.086       .  S
C451        C460   1.370       .  A
C451        C452   1.387       .  A
C452        S458   1.708       .  A
C452        C453   1.401       .  A
C453        C454   1.402       .  A
C453        H462   1.086       .  S
C454        C457   1.370       .  A
S455        C456   1.719       .  A
C456        C457   1.383       .  A
C457        H463   1.085       .  S
S458        C459   1.722       .  A
C459        C460   1.387       .  A
C460        H464   1.085       .  S
C465        S471   1.703       .  A
C465        C470   1.387       .  A
C465        C466   1.401       .  A
C466        C467   1.400       .  A
C466        H477   1.083       .  S
C467        C476   1.372       .  A
C467        C468   1.387       .  A
C468        S474   1.708       .  A
C468        C469   1.406   1_554  A
C469        C470   1.405   1_556  A
C469        H478   1.083       .  S
C470        C473   1.377   1_554  A
S471        C472   1.722       .  A
C472        C473   1.388   1_554  A
C473        H479   1.083       .  S
S474        C475   1.726       .  A
C475        C476   1.384       .  A
C476        H480   1.083       .  S
C481        S487   1.712       .  A
C481        C486   1.387       .  A
C481        C482   1.404       .  A
C482        C483   1.406       .  A
C482        H493   1.085       .  S
C483        C492   1.373       .  A
C483        C484   1.387       .  A
C484        S490   1.706       .  A
C484        C485   1.399       .  A
C485        C486   1.401       .  A
C485        H494   1.085       .  S
C486        C489   1.368       .  A
S487        C488   1.723       .  A
C488        C489   1.385       .  A
C489        H495   1.085       .  S
S490        C491   1.719       .  A
C491        C492   1.388       .  A
C492        H496   1.084       .  S
C497        S503   1.704       .  A
C497        C502   1.388       .  A
C497        C498   1.404       .  A
C498        C499   1.403       .  A
C498        H509   1.084   1_455  S
C499        C508   1.378   1_455  A
C499        C500   1.388       .  A
C500        S506   1.700       .  A
C500        C501   1.402       .  A
C501        C502   1.400       .  A
C501        H510   1.084       .  S
C502        C505   1.375       .  A
S503        C504   1.725       .  A
C504        C505   1.384       .  A
C505        H511   1.084       .  S
S506        C507   1.722       .  A
C507        C508   1.385   1_455  A
C508        H512   1.084       .  S
C513        S519   1.716       .  A
C513        C518   1.386   1_455  A
C513        C514   1.403       .  A
C514        C515   1.406   1_455  A
C514        H525   1.085       .  S
C515        C524   1.370       .  A
C515        C516   1.386       .  A
C516        S522   1.714       .  A
C516        C517   1.402       .  A
C517        C518   1.404       .  A
C517        H526   1.085       .  S
C518        C521   1.368   1_655  A
S519        C520   1.722       .  A
C520        C521   1.387       .  A
C521        H527   1.085       .  S
S522        C523   1.721       .  A
C523        C524   1.390       .  A
C524        H528   1.084       .  S
C529        S535   1.708       .  A
C529        C534   1.387       .  A
C529        C530   1.404       .  A
C530        C531   1.404       .  A
C530        H541   1.083       .  S
C531        C540   1.374       .  A
C531        C532   1.388       .  A
C532        S538   1.698       .  A
C532        C533   1.397       .  A
C533        C534   1.397       .  A
C533        H542   1.083       .  S
C534        C537   1.366       .  A
S535        C536   1.724       .  A
C536        C537   1.382       .  A
C537        H543   1.083       .  S
S538        C539   1.720       .  A
C539        C540   1.386       .  A
C540        H544   1.083       .  S
C545        S551   1.708   1_554  A
C545        C550   1.387       .  A
C545        C546   1.403   1_554  A
C546        C547   1.403   1_556  A
C546        H557   1.085       .  S
C547        C556   1.373   1_554  A
C547        C548   1.387       .  A
C548        S554   1.706       .  A
C548        C549   1.402       .  A
C549        C550   1.402       .  A
C549        H558   1.085       .  S
C550        C553   1.371       .  A
S551        C552   1.723   1_556  A
C552        C553   1.387       .  A
C553        H559   1.084       .  S
S554        C555   1.722       .  A
C555        C556   1.385   1_554  A
C556        H560   1.084       .  S
C561        S567   1.703       .  A
C561        C566   1.388       .  A
C561        C562   1.404   1_545  A
C562        C563   1.402       .  A
C562        H573   1.084       .  S
C563        C572   1.376       .  A
C563        C564   1.389   1_565  A
C564        S570   1.697       .  A
C564        C565   1.399       .  A
C565        C566   1.398       .  A
C565        H574   1.084       .  S
C566        C569   1.372       .  A
S567        C568   1.723       .  A
C568        C569   1.381       .  A
C569        H575   1.084       .  S
S570        C571   1.721   1_545  A
C571        C572   1.384       .  A
C572        H576   1.084       .  S
C577        S583   1.710       .  A
C577        C582   1.387       .  A
C577        C578   1.399       .  A
C578        C579   1.402       .  A
C578        H589   1.085       .  S
C579        C588   1.366       .  A
C579        C580   1.387       .  A
C580        S586   1.714   1_565  A
C580        C581   1.402       .  A
C581        C582   1.405       .  A
C581        H590   1.085       .  S
C582        C585   1.368       .  A
S583        C584   1.719       .  A
C584        C585   1.388       .  A
C585        H591   1.084       .  S
S586        C587   1.721   1_545  A
C587        C588   1.384       .  A
C588        H592   1.084       .  S
C593        S599   1.713       .  A
C593        C598   1.387       .  A
C593        C594   1.402       .  A
C594        C595   1.405       .  A
C594        H605   1.084       .  S
C595        C604   1.368       .  A
C595        C596   1.388       .  A
C596        S602   1.704       .  A
C596        C597   1.395       .  A
C597        C598   1.398       .  A
C597        H606   1.084       .  S
C598        C601   1.362       .  A
S599        C600   1.723       .  A
C600        C601   1.383       .  A
C601        H607   1.084   1_655  S
S602        C603   1.717       .  A
C603        C604   1.386       .  A
C604        H608   1.084       .  S
C609        S615   1.712   1_455  A
C609        C614   1.387       .  A
C609        C610   1.401       .  A
C610        C611   1.404       .  A
C610        H621   1.084       .  S
C611        C620   1.368       .  A
C611        C612   1.387       .  A
C612        S618   1.709       .  A
C612        C613   1.399       .  A
C613        C614   1.402       .  A
C613        H622   1.084       .  S
C614        C617   1.365       .  A
S615        C616   1.721       .  A
C616        C617   1.385   1_655  A
C617        H623   1.084       .  S
S618        C619   1.719       .  A
C619        C620   1.386       .  A
C620        H624   1.084       .  S
C625        S631   1.709       .  A
C625        C630   1.387       .  A
C625        C626   1.398       .  A
C626        C627   1.401       .  A
C626        H637   1.084       .  S
C627        C636   1.364       .  A
C627        C628   1.387   1_655  A
C628        S634   1.711       .  A
C628        C629   1.400       .  A
C629        C630   1.403   1_455  A
C629        H638   1.084       .  S
C630        C633   1.365       .  A
S631        C632   1.719       .  A
C632        C633   1.385       .  A
C633        H639   1.084   1_655  S
S634        C635   1.718       .  A
C635        C636   1.383   1_455  A
C636        H640   1.084       .  S
C641        S647   1.706       .  A
C641        C646   1.387       .  A
C641        C642   1.402       .  A
C642        C643   1.402       .  A
C642        H653   1.084       .  S
C643        C652   1.373       .  A
C643        C644   1.387       .  A
C644        S650   1.705       .  A
C644        C645   1.403       .  A
C645        C646   1.403       .  A
C645        H654   1.084       .  S
C646        C649   1.373       .  A
S647        C648   1.722       .  A
C648        C649   1.385       .  A
C649        H655   1.084       .  S
S650        C651   1.724       .  A
C651        C652   1.385       .  A
C652        H656   1.084       .  S
C657        S663   1.715       .  A
C657        C662   1.386       .  A
C657        C658   1.406       .  A
C658        C659   1.407       .  A
C658        H669   1.085       .  S
C659        C668   1.374       .  A
C659        C660   1.387       .  A
C660        S666   1.709       .  A
C660        C661   1.400       .  A
C661        C662   1.402       .  A
C661        H670   1.085       .  S
C662        C665   1.369       .  A
S663        C664   1.725       .  A
C664        C665   1.386       .  A
C665        H671   1.084       .  S
S666        C667   1.721       .  A
C667        C668   1.389       .  A
C668        H672   1.084   1_545  S
C673        S679   1.707       .  A
C673        C678   1.387   1_556  A
C673        C674   1.400       .  A
C674        C675   1.401   1_556  A
C674        H685   1.084       .  S
C675        C684   1.368       .  A
C675        C676   1.386       .  A
C676        S682   1.723       .  A
C676        C677   1.410       .  A
C677        C678   1.411       .  A
C677        H686   1.084       .  S
C678        C681   1.379       .  A
S679        C680   1.721       .  A
C680        C681   1.392   1_556  A
C681        H687   1.084       .  S
S682        C683   1.724       .  A
C683        C684   1.384       .  A
C684        H688   1.084   1_554  S
C689        S695   1.726       .  A
C689        C694   1.386       .  A
C689        C690   1.413       .  A
C690        C691   1.414       .  A
C690        H701   1.083       .  S
C691        C700   1.383       .  A
C691        C692   1.387       .  A
C692        S698   1.705       .  A
C692        C693   1.399       .  A
C693        C694   1.400       .  A
C693        H702   1.084       .  S
C694        C697   1.367       .  A
S695        C696   1.727       .  A
C696        C697   1.384       .  A
C697        H703   1.084       .  S
S698        C699   1.721       .  A
C699        C700   1.394       .  A
C700        H704   1.083       .  S
C705        S711   1.706       .  A
C705        C710   1.387       .  A
C705        C706   1.404       .  A
C706        C707   1.404       .  A
C706        H717   1.084       .  S
C707        C716   1.375       .  A
C707        C708   1.387       .  A
C708        S714   1.707       .  A
C708        C709   1.403       .  A
C709        C710   1.403       .  A
C709        H718   1.083       .  S
C710        C713   1.375       .  A
S711        C712   1.725       .  A
C712        C713   1.386       .  A
C713        H719   1.083       .  S
S714        C715   1.723       .  A
C715        C716   1.387       .  A
C716        H720   1.084       .  S
C721        S727   1.728       .  A
C721        C726   1.385       .  A
C721        C722   1.414       .  A
C722        C723   1.416       .  A
C722        H733   1.083       .  S
C723        C732   1.384       .  A
C723        C724   1.387       .  A
C724        S730   1.700       .  A
C724        C725   1.395       .  A
C725        C726   1.396       .  A
C725        H734   1.083       .  S
C726        C729   1.363       .  A
S727        C728   1.729       .  A
C728        C729   1.382       .  A
C729        H735   1.084       .  S
S730        C731   1.719       .  A
C731        C732   1.395       .  A
C732        H736   1.083       .  S
C737        S743   1.709       .  A
C737        C742   1.387       .  A
C737        C738   1.401       .  A
C738        C739   1.403       .  A
C738        H749   1.086       .  S
C739        C748   1.370       .  A
C739        C740   1.387       .  A
C740        S746   1.710       .  A
C740        C741   1.402       .  A
C741        C742   1.403       .  A
C741        H750   1.086       .  S
C742        C745   1.370       .  A
S743        C744   1.722       .  A
C744        C745   1.386       .  A
C745        H751   1.085       .  S
S746        C747   1.721       .  A
C747        C748   1.386       .  A
C748        H752   1.085       .  S
C753        S759   1.708       .  A
C753        C758   1.387       .  A
C753        C754   1.399       .  A
C754        C755   1.401       .  A
C754        H765   1.085       .  S
C755        C764   1.364       .  A
C755        C756   1.387       .  A
C756        S762   1.714       .  A
C756        C757   1.402       .  A
C757        C758   1.405       .  A
C757        H766   1.084       .  S
C758        C761   1.369       .  A
S759        C760   1.718       .  A
C760        C761   1.386       .  A
C761        H767   1.084       .  S
S762        C763   1.721       .  A
C763        C764   1.386       .  A
C764        H768   1.085       .  S
C769        S775   1.715       .  A
C769        C774   1.387       .  A
C769        C770   1.403       .  A
C770        C771   1.406       .  A
C770        H781   1.084       .  S
C771        C780   1.370       .  A
C771        C772   1.387       .  A
C772        S778   1.713       .  A
C772        C773   1.401       .  A
C773        C774   1.404       .  A
C773        H782   1.084       .  S
C774        C777   1.368       .  A
S775        C776   1.721       .  A
C776        C777   1.386       .  A
C777        H783   1.084       .  S
S778        C779   1.720       .  A
C779        C780   1.388       .  A
C780        H784   1.084       .  S
C785        S791   1.720       .  A
C785        C790   1.387   1_556  A
C785        C786   1.407       .  A
C786        C787   1.409   1_556  A
C786        H797   1.083       .  S
C787        C796   1.374       .  A
C787        C788   1.387       .  A
C788        S794   1.711       .  A
C788        C789   1.399       .  A
C789        C790   1.402       .  A
C789        H798   1.083       .  S
C790        C793   1.367       .  A
S791        C792   1.723       .  A
C792        C793   1.383   1_556  A
C793        H799   1.084       .  S
S794        C795   1.718       .  A
C795        C796   1.389       .  A
C796        H800   1.084   1_554  S
C801        S807   1.706       .  A
C801        C806   1.388       .  A
C801        C802   1.403       .  A
C802        C803   1.403       .  A
C802        H813   1.084       .  S
C803        C812   1.374       .  A
C803        C804   1.388       .  A
C804        S810   1.703       .  A
C804        C805   1.402       .  A
C805        C806   1.401       .  A
C805        H814   1.085       .  S
C806        C809   1.372       .  A
S807        C808   1.721       .  A
C808        C809   1.384       .  A
C809        H815   1.084       .  S
S810        C811   1.724       .  A
C811        C812   1.385       .  A
C812        H816   1.084       .  S
C817        S823   1.707       .  A
C817        C822   1.387       .  A
C817        C818   1.401       .  A
C818        C819   1.402       .  A
C818        H829   1.083   1_554  S
C819        C828   1.370       .  A
C819        C820   1.386       .  A
C820        S826   1.712       .  A
C820        C821   1.405       .  A
C821        C822   1.406       .  A
C821        H830   1.083       .  S
C822        C825   1.375       .  A
S823        C824   1.721       .  A
C824        C825   1.387       .  A
C825        H831   1.083       .  S
S826        C827   1.725       .  A
C827        C828   1.387       .  A
C828        H832   1.083   1_554  S
C833        S839   1.721       .  A
C833        C838   1.386       .  A
C833        C834   1.407       .  A
C834        C835   1.409       .  A
C834        H845   1.083       .  S
C835        C844   1.374       .  A
C835        C836   1.387   1_554  A
C836        S842   1.709       .  A
C836        C837   1.399       .  A
C837        C838   1.402   1_556  A
C837        H846   1.083       .  S
C838        C841   1.365       .  A
S839        C840   1.723       .  A
C840        C841   1.387       .  A
C841        H847   1.084   1_554  S
S842        C843   1.718       .  A
C843        C844   1.389   1_556  A
C844        H848   1.083       .  S
C849        S855   1.707       .  A
C849        C854   1.387   1_556  A
C849        C850   1.399   1_556  A
C850        C851   1.401       .  A
C850        H861   1.086   1_554  S
C851        C860   1.366       .  A
C851        C852   1.386       .  A
C852        S858   1.713       .  A
C852        C853   1.403       .  A
C853        C854   1.405       .  A
C853        H862   1.086       .  S
C854        C857   1.371   1_554  A
S855        C856   1.722       .  A
C856        C857   1.388       .  A
C857        H863   1.085   1_556  S
S858        C859   1.723       .  A
C859        C860   1.387       .  A
C860        H864   1.085       .  S
C865        S871   1.721       .  A
C865        C870   1.386       .  A
C865        C866   1.408       .  A
C866        C867   1.410       .  A
C866        H877   1.083       .  S
C867        C876   1.377       .  A
C867        C868   1.387       .  A
C868        S874   1.702       .  A
C868        C869   1.396       .  A
C869        C870   1.398       .  A
C869        H878   1.084       .  S
C870        C873   1.363       .  A
S871        C872   1.723       .  A
C872        C873   1.382       .  A
C873        H879   1.084       .  S
S874        C875   1.720       .  A
C875        C876   1.390       .  A
C876        H880   1.083       .  S
C881        S887   1.708       .  A
C881        C886   1.387       .  A
C881        C882   1.401       .  A
C882        C883   1.402       .  A
C882        H893   1.085       .  S
C883        C892   1.370       .  A
C883        C884   1.387       .  A
C884        S890   1.712       .  A
C884        C885   1.404       .  A
C885        C886   1.406       .  A
C885        H894   1.085       .  S
C886        C889   1.373       .  A
S887        C888   1.722       .  A
C888        C889   1.389       .  A
C889        H895   1.084       .  S
S890        C891   1.723       .  A
C891        C892   1.385       .  A
C892        H896   1.084       .  S
C897        S903   1.714       .  A
C897        C902   1.387       .  A
C897        C898   1.401       .  A
C898        C899   1.404       .  A
C898        H909   1.084       .  S
C899        C908   1.367       .  A
C899        C900   1.387       .  A
C900        S906   1.712       .  A
C900        C901   1.400       .  A
C901        C902   1.403       .  A
C901        H910   1.084       .  S
C902        C905   1.366       .  A
S903        C904   1.721       .  A
C904        C905   1.386       .  A
C905        H911   1.084       .  S
S906        C907   1.719       .  A
C907        C908   1.386       .  A
C908        H912   1.084       .  S
C913        S919   1.703       .  A
C913        C918   1.388       .  A
C913        C914   1.403       .  A
C914        C915   1.402       .  A
C914        H925   1.084       .  S
C915        C924   1.376       .  A
C915        C916   1.388       .  A
C916        S922   1.698       .  A
C916        C917   1.400       .  A
C917        C918   1.399       .  A
C917        H926   1.084       .  S
C918        C921   1.372       .  A
S919        C920   1.721       .  A
C920        C921   1.381       .  A
C921        H927   1.084       .  S
S922        C923   1.725       .  A
C923        C924   1.385       .  A
C924        H928   1.083       .  S
C929        S935   1.702       .  A
C929        C934   1.387       .  A
C929        C930   1.399       .  A
C930        C931   1.400       .  A
C930        H941   1.083       .  S
C931        C940   1.369       .  A
C931        C932   1.385       .  A
C932        S938   1.715       .  A
C932        C933   1.409       .  A
C933        C934   1.409       .  A
C933        H942   1.083       .  S
C934        C937   1.381       .  A
S935        C936   1.723       .  A
C936        C937   1.391       .  A
C937        H943   1.083       .  S
S938        C939   1.726       .  A
C939        C940   1.385       .  A
C940        H944   1.084       .  S
C945        S951   1.729       .  A
C945        C950   1.385       .  A
C945        C946   1.416       .  A
C946        C947   1.417       .  A
C946        H957   1.082       .  S
C947        C956   1.386       .  A
C947        C948   1.387       .  A
C948        S954   1.696       .  A
C948        C949   1.393       .  A
C949        C950   1.395       .  A
C949        H958   1.083       .  S
C950        C953   1.361       .  A
S951        C952   1.730       .  A
C952        C953   1.383       .  A
C953        H959   1.084       .  S
S954        C955   1.719       .  A
C955        C956   1.396       .  A
C956        H960   1.083       .  S
C961        S967   1.707       .  A
C961        C966   1.387       .  A
C961        C962   1.400       .  A
C962        C963   1.401       .  A
C962        H973   1.086       .  S
C963        C972   1.367       .  A
C963        C964   1.387       .  A
C964        S970   1.711       .  A
C964        C965   1.401       .  A
C965        C966   1.403       .  A
C965        H974   1.086       .  S
C966        C969   1.369       .  A
S967        C968   1.721       .  A
C968        C969   1.387       .  A
C969        H975   1.085       .  S
S970        C971   1.721       .  A
C971        C972   1.384       .  A
C972        H976   1.085       .  S
C977        S983   1.710       .  A
C977        C982   1.387       .  A
C977        C978   1.401       .  A
C978        C979   1.403       .  A
C978        H989   1.084       .  S
C979        C988   1.369       .  A
C979        C980   1.388       .  A
C980        S986   1.707       .  A
C980        C981   1.400       .  A
C981        C982   1.401       .  A
C981        H990   1.085       .  S
C982        C985   1.367       .  A
S983        C984   1.721       .  A
C984        C985   1.385       .  A
C985        H991   1.084       .  S
S986        C987   1.722       .  A
C987        C988   1.385       .  A
C988        H992   1.084       .  S
C993        S999   1.719       .  A
C993        C998   1.386       .  A
C993        C994   1.407       .  A
C994        C995   1.409       .  A
C994       H1005   1.084       .  S
C995       C1004   1.375       .  A
C995        C996   1.387       .  A
C996       S1002   1.703       .  A
C996        C997   1.396       .  A
C997        C998   1.398       .  A
C997       H1006   1.084       .  S
C998       C1001   1.363       .  A
S999       C1000   1.725       .  A
C1000      C1001   1.386       .  A
C1001      H1007   1.084       .  S
S1002      C1003   1.720       .  A
C1003      C1004   1.389       .  A
C1004      H1008   1.084       .  S
C1009      S1015   1.720       .  A
C1009      C1014   1.386       .  A
C1009      C1010   1.405       .  A
C1010      C1011   1.408       .  A
C1010      H1021   1.084       .  S
C1011      C1020   1.371       .  A
C1011      C1012   1.387       .  A
C1012      S1018   1.706       .  A
C1012      C1013   1.395       .  A
C1013      C1014   1.399       .  A
C1013      H1022   1.085       .  S
C1014      C1017   1.360       .  A
S1015      C1016   1.723       .  A
C1016      C1017   1.385       .  A
C1017      H1023   1.085       .  S
S1018      C1019   1.718       .  A
C1019      C1020   1.390       .  A
C1020      H1024   1.084       .  S
C1025      S1031   1.726       .  A
C1025      C1030   1.385       .  A
C1025      C1026   1.411       .  A
C1026      C1027   1.413       .  A
C1026      H1037   1.083       .  S
C1027      C1036   1.381       .  A
C1027      C1028   1.387   1_554  A
C1028      S1034   1.702       .  A
C1028      C1029   1.397       .  A
C1029      C1030   1.399   1_556  A
C1029      H1038   1.083       .  S
C1030      C1033   1.363       .  A
S1031      C1032   1.726       .  A
C1032      C1033   1.384       .  A
C1033      H1039   1.084       .  S
S1034      C1035   1.720       .  A
C1035      C1036   1.392   1_556  A
C1036      H1040   1.083       .  S
C1041      S1047   1.706       .  A
C1041      C1046   1.388   1_554  A
C1041      C1042   1.401       .  A
C1042      C1043   1.402       .  A
C1042      H1053   1.085       .  S
C1043      C1052   1.371       .  A
C1043      C1044   1.387       .  A
C1044      S1050   1.707       .  A
C1044      C1045   1.402   1_554  A
C1045      C1046   1.403       .  A
C1045      H1054   1.084       .  S
C1046      C1049   1.372       .  A
S1047      C1048   1.722   1_554  A
C1048      C1049   1.385       .  A
C1049      H1055   1.084       .  S
S1050      C1051   1.723       .  A
C1051      C1052   1.386       .  A
C1052      H1056   1.084       .  S
C1057      S1063   1.714       .  A
C1057      C1062   1.386       .  A
C1057      C1058   1.402       .  A
C1058      C1059   1.405       .  A
C1058      H1069   1.084       .  S
C1059      C1068   1.367       .  A
C1059      C1060   1.387       .  A
C1060      S1066   1.713       .  A
C1060      C1061   1.401       .  A
C1061      C1062   1.404       .  A
C1061      H1070   1.084       .  S
C1062      C1065   1.367       .  A
S1063      C1064   1.722       .  A
C1064      C1065   1.388       .  A
C1065      H1071   1.084       .  S
S1066      C1067   1.718       .  A
C1067      C1068   1.386       .  A
C1068      H1072   1.084       .  S
C1073      S1079   1.713       .  A
C1073      C1078   1.387       .  A
C1073      C1074   1.402       .  A
C1074      C1075   1.404       .  A
C1074      H1085   1.084       .  S
C1075      C1084   1.369       .  A
C1075      C1076   1.387       .  A
C1076      S1082   1.715       .  A
C1076      C1077   1.403       .  A
C1077      C1078   1.406       .  A
C1077      H1086   1.084       .  S
C1078      C1081   1.371       .  A
S1079      C1080   1.721       .  A
C1080      C1081   1.389       .  A
C1081      H1087   1.084       .  S
S1082      C1083   1.721       .  A
C1083      C1084   1.386       .  A
C1084      H1088   1.084       .  S
C1089      S1095   1.712       .  A
C1089      C1094   1.387       .  A
C1089      C1090   1.402       .  A
C1090      C1091   1.404       .  A
C1090      H1101   1.085       .  S
C1091      C1100   1.369       .  A
C1091      C1092   1.387       .  A
C1092      S1098   1.710       .  A
C1092      C1093   1.400       .  A
C1093      C1094   1.403       .  A
C1093      H1102   1.085       .  S
C1094      C1097   1.368       .  A
S1095      C1096   1.721       .  A
C1096      C1097   1.386       .  A
C1097      H1103   1.085       .  S
S1098      C1099   1.720       .  A
C1099      C1100   1.387       .  A
C1100      H1104   1.085       .  S
C1105      S1111   1.705       .  A
C1105      C1110   1.387       .  A
C1105      C1106   1.399   1_554  A
C1106      C1107   1.400   1_556  A
C1106      H1117   1.083       .  S
C1107      C1116   1.367   1_554  A
C1107      C1108   1.387       .  A
C1108      S1114   1.715       .  A
C1108      C1109   1.405       .  A
C1109      C1110   1.407       .  A
C1109      H1118   1.083       .  S
C1110      C1113   1.374       .  A
S1111      C1112   1.720       .  A
C1112      C1113   1.388       .  A
C1113      H1119   1.083       .  S
S1114      C1115   1.723       .  A
C1115      C1116   1.384   1_554  A
C1116      H1120   1.084       .  S
