geometry optimzed in LAMMPS
_audit_creation_date              2020-12-01 
_audit_creation_method            'lammps2cif' 
_symmetry_space_group_name_H-M    'P1' 
_symmetry_Int_Tables_number       1 
_symmetry_cell_setting            triclinic 
loop_ 
_symmetry_equiv_pos_as_xyz 
  x,y,z 
_cell_length_a                    35.1959162 
_cell_length_b                    35.14765366336748 
_cell_length_c                    52.28714031648845 
_cell_angle_alpha                 90.18504077352239 
_cell_angle_beta                  89.99273467531397 
_cell_angle_gamma                 89.80610257759771 
loop_ 
_atom_site_label 
_atom_site_type_symbol 
_atom_site_fract_x 
_atom_site_fract_y 
_atom_site_fract_z 
_atom_site_charge 
O1          O  0.62960645  0.12669145  0.30607414    -0.81100
O2          O  0.51976380  0.10951483  0.39596986    -0.65800
O3          O  0.60628747  0.09998032  0.35339782    -1.12400
C4          C  0.52161806  0.02092167  0.30630653     1.05800
O5          O  0.51100565  0.04746988  0.39754004    -0.79000
O6          O  0.54757170  0.99835590  0.36532539    -0.66600
Ni7        Ni  0.63111550  0.14453320  0.34100374     1.34900
C8          C  0.58277794  0.99747628  0.36004995     0.84600
O9          O  0.58931903  0.13739212  0.39855064    -0.79500
O10         O  0.63519455  0.16538060  0.37523395    -0.89800
C11         C  0.50521085  0.08071505  0.40649368     0.84100
O12         O  0.58760563  0.17594233  0.33406845    -0.68000
O13         O  0.50117148  0.01985636  0.32647088    -0.87300
C14         C  0.55401608  0.17511570  0.34286476     0.85000
C15         C  0.61674928  0.16059540  0.39605252     1.06500
H16         H  0.52132794  0.09161403  0.34031721     0.38300
O17         O  0.53837742  0.07574185  0.35010997    -1.09900
O18         O  0.59984599  0.02346418  0.34762672    -0.66600
Ni19       Ni  0.58180689  0.06760936  0.32912122     1.26300
O20         O  0.54267569  0.15004954  0.35837044    -0.66800
O21         O  0.55464459  0.03603170  0.30537182    -0.79100
C22         C  0.64024993  0.09401741  0.29824590     0.84300
O23         O  0.62671761  0.06388572  0.30811903    -0.66300
Ni24       Ni  0.50788331  0.03467183  0.36139230     1.27400
Ni25       Ni  0.56324658  0.10615229  0.37480802     1.26100
H26         H  0.62508582  0.08546838  0.36270640     0.38900
O27         O  0.47780703  0.92294417  0.12404089    -0.81100
O28         O  0.35827693  0.90187532  0.21204774    -0.65800
O29         O  0.44814298  0.89517351  0.17116092    -1.12400
C30         C  0.37136268  0.80994050  0.12327607     1.05800
O31         O  0.36165812  0.83918011  0.21334967    -0.79000
O32         O  0.40033113  0.78991911  0.18305491    -0.66600
Ni33       Ni  0.47690286  0.93750015  0.16002208     1.34900
C34         C  0.43481108  0.79293776  0.17631554     0.84600
O35         O  0.42829538  0.93357444  0.21599327    -0.79500
O36         O  0.47972553  0.95482761  0.19475986    -0.89800
C37         C  0.34778522  0.87034243  0.22163046     0.84100
O38         O  0.43524148  0.97045593  0.15376029    -0.68000
O39         O  0.35159711  0.80536032  0.14356650    -0.87300
C40         C  0.40031279  0.97116865  0.15979626     0.85000
C41         C  0.45938707  0.95218910  0.21492255     1.06500
H42         H  0.36269542  0.88257239  0.15698955     0.38300
O43         O  0.38140627  0.86849231  0.16665860    -1.09900
O44         O  0.44689840  0.82063603  0.16335922    -0.66600
Ni45       Ni  0.42525242  0.86343487  0.14628120     1.26300
O46         O  0.38421199  0.94559510  0.17328604    -0.66800
O47         O  0.40064782  0.83118859  0.12220315    -0.79100
C48         C  0.48336541  0.88953877  0.11524836     0.84300
O49         O  0.46947230  0.86081574  0.12614974    -0.66300
Ni50       Ni  0.35741625  0.82319565  0.17827471     1.27400
Ni51       Ni  0.40364169  0.90134275  0.19152281     1.26100
H52         H  0.46564149  0.88020311  0.18123459     0.38900
O53         O  0.59613889  0.86630870  0.43219588    -0.81100
O54         O  0.62016399  0.75891112  0.02112344    -0.65800
O55         O  0.62543756  0.84539469  0.47912204    -1.12400
C56         C  0.70844535  0.76555093  0.43099628     1.05800
O57         O  0.68215501  0.74922448  0.02198193    -0.79000
O58         O  0.72863971  0.78985725  0.49102106    -0.66600
Ni59       Ni  0.57941313  0.86831024  0.46732206     1.34900
C60         C  0.72841818  0.82510160  0.48586274     0.84600
O61         O  0.59100399  0.82788333  0.02465378    -0.79500
O62         O  0.55980769  0.87235082  0.00195769    -0.89800
C63         C  0.64916635  0.74433356  0.03133389     0.84100
O64         O  0.54926289  0.82391974  0.46090397    -0.68000
O65         O  0.71066838  0.74456142  0.45082453    -0.87300
C66         C  0.55185125  0.79036269  0.46955068     0.85000
C67         C  0.56673499  0.85466292  0.02284253     1.06500
H68         H  0.63669370  0.76080331  0.46539239     0.38300
O69         O  0.65225832  0.77817148  0.47515418    -1.09900
O70         O  0.70218250  0.84154853  0.47305115    -0.66600
Ni71       Ni  0.65822934  0.82228679  0.45454134     1.26300
O72         O  0.57799837  0.78013915  0.48463815    -0.66800
O73         O  0.69050741  0.79717454  0.43029099    -0.79100
C74         C  0.62790257  0.87822528  0.42379598     0.84300
O75         O  0.65902387  0.86724075  0.43380144    -0.66300
Ni76       Ni  0.69484270  0.74873245  0.48576138     1.27400
Ni77       Ni  0.62174505  0.80228325  0.50030494     1.26100
H78         H  0.63927227  0.86478515  0.48834755     0.38900
O79         O  0.80362646  0.72214002  0.24816746    -0.81100
O80         O  0.82559011  0.60389443  0.33678231    -0.65800
O81         O  0.83386329  0.69210548  0.29461993    -1.12400
C82         C  0.91523067  0.61162905  0.24660934     1.05800
O83         O  0.88843993  0.60264481  0.33796013    -0.79000
O84         O  0.93547305  0.64435873  0.30832247    -0.66600
Ni85       Ni  0.79151473  0.72232044  0.28441304     1.34900
C86         C  0.93350151  0.67772182  0.29918131     0.84600
O87         O  0.79699590  0.67501736  0.34045824    -0.79500
O88         O  0.77645838  0.72694840  0.31942566    -0.89800
C89         C  0.85638846  0.59159706  0.34646142     0.84100
O90         O  0.75718989  0.68142830  0.27931411    -0.68000
O91         O  0.92280359  0.59489250  0.26774365    -0.87300
C92         C  0.75664967  0.64638206  0.28513911     0.85000
C93         C  0.77956298  0.70688058  0.33959609     1.06500
H94         H  0.84396731  0.60469152  0.28222726     0.38300
O95         O  0.85858891  0.62397171  0.29099888    -1.09900
O96         O  0.90756189  0.68786028  0.28391980    -0.66600
Ni97       Ni  0.86273071  0.66648147  0.26919432     1.26300
O98         O  0.78249275  0.62997043  0.29824593    -0.66800
O99         O  0.89172834  0.63910532  0.24472704    -0.79100
C100        C  0.83659582  0.72660707  0.23869521     0.84300
O101        O  0.86507694  0.70949401  0.24782344    -0.66300
Ni102      Ni  0.90436020  0.60018981  0.30258241     1.27400
Ni103      Ni  0.82741629  0.64851523  0.31581917     1.26100
H104        H  0.85020777  0.70927888  0.30393357     0.38900
O105        O  0.01041253  0.04743074  0.37233721    -0.81100
O106        O  0.12461307  0.07055741  0.46235044    -0.65800
O107        O  0.03677293  0.07673811  0.41988928    -1.12400
C108        C  0.11381557  0.16440868  0.37491406     1.05800
O109        O  0.12054010  0.13315140  0.46523865    -0.79000
O110        O  0.07919997  0.18114154  0.43556434    -0.66600
Ni111      Ni  0.00915640  0.03364458  0.40822458     1.34900
C112        C  0.04615888  0.17820236  0.42607292     0.84600
O113        O  0.05503265  0.03823629  0.46483770    -0.79500
O114        O  0.00427819  0.01678040  0.44283838    -0.89800
C115        C  0.13501222  0.10173977  0.47249982     0.84100
O116        O  0.05141637  0.00099073  0.40307791    -0.68000
O117        O  0.13039133  0.17117536  0.39625160    -0.87300
C118        C  0.08629876  0.00145333  0.40914471     0.85000
C119        C  0.02398714  0.01965025  0.46322387     1.06500
H120        H  0.12333877  0.09175430  0.40842938     0.38300
O121        O  0.10327553  0.10497629  0.41747044    -1.09900
O122        O  0.03689305  0.15138818  0.41121834    -0.66600
Ni123      Ni  0.06095069  0.10843970  0.39559011     1.26300
O124        O  0.10147642  0.02766996  0.42267466    -0.66800
O125        O  0.08687268  0.14050514  0.37233793    -0.79100
C126        C  0.00432270  0.08054557  0.36349157     0.84300
O127        O  0.01835931  0.10966739  0.37393646    -0.66300
Ni128      Ni  0.12440456  0.15113402  0.43051761     1.27400
Ni129      Ni  0.08027079  0.07111267  0.44119267     1.26100
H130        H  0.01864373  0.09171690  0.42951809     0.38900
O131        O  0.86194159  0.83769754  0.05758613    -0.81100
O132        O  0.97223784  0.86162721  0.14473125    -0.65800
O133        O  0.88448426  0.86970692  0.10362622    -1.12400
C134        C  0.96364119  0.95000100  0.05405363     1.05800
O135        O  0.98433492  0.92326600  0.14498994    -0.79000
O136        O  0.93945295  0.96921928  0.11633410    -0.66600
Ni137      Ni  0.85878085  0.82436171  0.09329500     1.34900
C138        C  0.90499682  0.97033662  0.10925421     0.84600
O139        O  0.90206129  0.83549756  0.14959513    -0.79500
O140        O  0.85319297  0.80871680  0.12852011    -0.89800
C141        C  0.98892427  0.89009052  0.15415372     0.84100
O142        O  0.90104424  0.79006620  0.08867910    -0.68000
O143        O  0.98284429  0.95467884  0.07448791    -0.87300
C144        C  0.93541678  0.79234042  0.09584687     0.85000
C145        C  0.87266092  0.81440742  0.14884044     1.06500
H146        H  0.96979517  0.87794134  0.08937852     0.38300
O147        O  0.95234790  0.89403387  0.09876626    -1.09900
O148        O  0.88963457  0.94558165  0.09467990    -0.66600
Ni149      Ni  0.90815341  0.89975433  0.07787798     1.26300
O150        O  0.94782705  0.82007232  0.10877174    -0.66800
O151        O  0.93390028  0.92938770  0.05258214    -0.79100
C152        C  0.85044757  0.86921960  0.04842431     0.84300
O153        O  0.86300614  0.90056900  0.05718366    -0.66300
Ni154      Ni  0.98139513  0.93711773  0.10910128     1.27400
Ni155      Ni  0.92799672  0.86485693  0.12450511     1.26100
H156        H  0.86615380  0.88515763  0.11274929     0.38900
O157        O  0.18032337  0.74426425  0.24939018    -0.81100
O158        O  0.15927604  0.86619111  0.33682324    -0.65800
O159        O  0.15147013  0.77585390  0.29607961    -1.12400
C160        C  0.06949777  0.85386049  0.24692016     1.05800
O161        O  0.09637988  0.86725820  0.33810922    -0.79000
O162        O  0.04854822  0.82431621  0.30897208    -0.66600
Ni163      Ni  0.19416701  0.74630562  0.28539721     1.34900
C164        C  0.05085881  0.79038839  0.30064372     0.84600
O165        O  0.18915485  0.79529041  0.34133249    -0.79500
O166        O  0.21124399  0.74392659  0.32015302    -0.89800
C167        C  0.12843885  0.87904536  0.34626262     0.84100
O168        O  0.22683946  0.78783081  0.27850930    -0.68000
O169        O  0.06227116  0.87181073  0.26773231    -0.87300
C170        C  0.22708194  0.82294168  0.28423817     0.85000
C171        C  0.20785548  0.76408241  0.34037837     1.06500
H172        H  0.14044321  0.86234971  0.28215295     0.38300
O173        O  0.12603666  0.84355400  0.29147413    -1.09900
O174        O  0.07741078  0.77940366  0.28614676    -0.66600
Ni175      Ni  0.12167998  0.79989294  0.27057510     1.26300
O176        O  0.20205895  0.83902145  0.29827815    -0.66800
O177        O  0.09210695  0.82555836  0.24564569    -0.79100
C178        C  0.14708060  0.73972236  0.24035520     0.84300
O179        O  0.11868492  0.75573459  0.25035420    -0.66300
Ni180      Ni  0.08035789  0.86797846  0.30269580     1.27400
Ni181      Ni  0.15780624  0.82050654  0.31654116     1.26100
H182        H  0.13569055  0.75870980  0.30579055     0.38900
O183        O  0.38939751  0.60273969  0.43180807    -0.81100
O184        O  0.36793214  0.71011180  0.02132243    -0.65800
O185        O  0.36137414  0.62325831  0.47915496    -1.12400
C186        C  0.27748749  0.70314229  0.43196064     1.05800
O187        O  0.30584997  0.71902970  0.02274837    -0.79000
O188        O  0.25866436  0.67799247  0.49258375    -0.66600
Ni189      Ni  0.40691170  0.60020813  0.46667497     1.34900
C190        C  0.25890885  0.64275401  0.48723490     0.84600
O191        O  0.39722391  0.64068338  0.02441026    -0.79500
O192        O  0.42665888  0.59545916  0.00108465    -0.89800
C193        C  0.33900020  0.72495428  0.03154370     0.84100
O194        O  0.43753732  0.64439478  0.46052052    -0.68000
O195        O  0.27515416  0.72362837  0.45210990    -0.87300
C196        C  0.43505539  0.67807713  0.46913540     0.85000
C197        C  0.42024690  0.61273804  0.02225626     1.06500
H198        H  0.34968865  0.70781446  0.46575720     0.38300
O199        O  0.33447431  0.69037196  0.47563649    -1.09900
O200        O  0.28468214  0.62660737  0.47382536    -0.66600
Ni201      Ni  0.32801231  0.64615564  0.45493326     1.26300
O202        O  0.40899301  0.68852324  0.48424851    -0.66800
O203        O  0.29525282  0.67137305  0.43096253    -0.79100
C204        C  0.35769080  0.58975095  0.42404502     0.84300
O205        O  0.32670668  0.60093134  0.43418097    -0.66300
Ni206      Ni  0.29193839  0.71943389  0.48684063     1.27400
Ni207      Ni  0.36577029  0.66645783  0.50043278     1.26100
H208        H  0.34777917  0.60393121  0.48852270     0.38900
O209        O  0.10146814  0.36688870  0.18337225    -0.81100
O210        O  0.12237925  0.25963152  0.27206331    -0.65800
O211        O  0.12895201  0.34651340  0.23064678    -1.12400
C212        C  0.21080425  0.26612073  0.18216381     1.05800
O213        O  0.18437935  0.24973847  0.27325397    -0.79000
O214        O  0.23208138  0.28959282  0.24221763    -0.66600
Ni215      Ni  0.08351420  0.36941902  0.21814200     1.34900
C216        C  0.23229641  0.32508331  0.23773863     0.84600
O217        O  0.09303887  0.32892549  0.27562355    -0.79500
O218        O  0.06352706  0.37407539  0.25246357    -0.89800
C219        C  0.15120094  0.24489573  0.28241031     0.84100
O220        O  0.05240499  0.32535596  0.21185202    -0.68000
O221        O  0.21234853  0.24473749  0.20186308    -0.87300
C222        C  0.05436758  0.29175046  0.22057973     0.85000
C223        C  0.06965814  0.35653314  0.27350073     1.06500
H224        H  0.13972302  0.26245687  0.21629720     0.38300
O225        O  0.15528588  0.27936124  0.22642200    -1.09900
O226        O  0.20596963  0.34233465  0.22553179    -0.66600
Ni227      Ni  0.16236373  0.32383632  0.20631809     1.26300
O228        O  0.08067556  0.28113565  0.23543420    -0.66800
O229        O  0.19490332  0.29886131  0.18203287    -0.79100
C230        C  0.13319977  0.38002931  0.17575674     0.84300
O231        O  0.16411387  0.36936006  0.18616042    -0.66300
Ni232      Ni  0.19720365  0.24916604  0.23699055     1.27400
Ni233      Ni  0.12435268  0.30318953  0.25147262     1.26100
H234        H  0.14250433  0.36576590  0.24018440     0.38900
O235        O  0.30519040  0.22370695  0.99797973    -0.81100
O236        O  0.32546465  0.10398363  0.08696642    -0.65800
O237        O  0.33349087  0.19262689  0.04492699    -1.12400
C238        C  0.41801129  0.11361410  0.49780184     1.05800
O239        O  0.38823301  0.10431882  0.08857000    -0.79000
O240        O  0.43606385  0.14534653  0.05925321    -0.66600
Ni241      Ni  0.29107480  0.22233278  0.03400883     1.34900
C242        C  0.43391529  0.17877330  0.05029819     0.84600
O243        O  0.29534168  0.17467101  0.09021587    -0.79500
O244        O  0.27368302  0.22571882  0.06873778    -0.89800
C245        C  0.35641615  0.09235201  0.09686756     0.84100
O246        O  0.25837692  0.18064623  0.02745798    -0.68000
O247        O  0.42437224  0.09616618  0.01884962    -0.87300
C248        C  0.25791303  0.14578027  0.03371097     0.85000
C249        C  0.27668298  0.20581705  0.08901688     1.06500
H250        H  0.34509991  0.10550981  0.03235702     0.38300
O251        O  0.35927676  0.12481955  0.04143564    -1.09900
O252        O  0.40759656  0.18916741  0.03545060    -0.66600
Ni253      Ni  0.36371664  0.16751200  0.01991966     1.26300
O254        O  0.28289210  0.12989943  0.04782538    -0.66800
O255        O  0.39435773  0.14099472  0.49575730    -0.79100
C256        C  0.33853608  0.22706224  0.48882022     0.84300
O257        O  0.36655697  0.21057674  0.99893467    -0.66300
Ni258      Ni  0.40493949  0.10134566  0.05343894     1.27400
Ni259      Ni  0.32704172  0.14880329  0.06598314     1.26100
H260        H  0.34924175  0.21003412  0.05451915     0.38900
O261        O  0.51051639  0.54392567  0.12277478    -0.81100
O262        O  0.62654943  0.56878910  0.21176569    -0.65800
O263        O  0.53796927  0.57464421  0.16965368    -1.12400
C264        C  0.61386919  0.66034036  0.12272974     1.05800
O265        O  0.62372071  0.63160500  0.21352427    -0.79000
O266        O  0.58085911  0.67809984  0.18432307    -0.66600
Ni267      Ni  0.50935519  0.53180813  0.15895161     1.34900
C268        C  0.54773009  0.67515184  0.17497659     0.84600
O269        O  0.55679736  0.53692656  0.21485301    -0.79500
O270        O  0.50472359  0.51666668  0.19389509    -0.89800
C271        C  0.63689268  0.60014618  0.22177024     0.84100
O272        O  0.55091246  0.49820770  0.15444295    -0.68000
O273        O  0.63062082  0.66784926  0.14389920    -0.87300
C274        C  0.58591312  0.49814844  0.16023522     0.85000
C275        C  0.52521045  0.51913727  0.21395272     1.06500
H276        H  0.62452750  0.58826338  0.15727146     0.38300
O277        O  0.60467483  0.60191718  0.16624112    -1.09900
O278        O  0.53878287  0.64879359  0.15967815    -0.66600
Ni279      Ni  0.56189543  0.60503388  0.14455685     1.26300
O280        O  0.60207959  0.52484085  0.17275367    -0.66800
O281        O  0.58758497  0.63574919  0.12052189    -0.79100
C282        C  0.50417377  0.57670885  0.11349664     0.84300
O283        O  0.51863144  0.60614845  0.12323334    -0.66300
Ni284      Ni  0.62609935  0.64842910  0.17846011     1.27400
Ni285      Ni  0.58184017  0.56910584  0.19069921     1.26100
H286        H  0.52029385  0.59022412  0.17922433     0.38900
O287        O  0.36957439  0.33828713  0.30691537    -0.81100
O288        O  0.47381232  0.36331735  0.39691224    -0.65800
O289        O  0.38846643  0.36813241  0.35394912    -1.12400
C290        C  0.46862370  0.45085470  0.30685874     1.05800
O291        O  0.48312193  0.42531454  0.39842936    -0.79000
O292        O  0.44117338  0.47100281  0.36742707    -0.66600
Ni293      Ni  0.36566267  0.32229218  0.34200678     1.34900
C294        C  0.40627610  0.47019135  0.36131339     0.84600
O295        O  0.40517303  0.33349791  0.39964290    -0.79500
O296        O  0.35979221  0.30399029  0.37665989    -0.89800
C297        C  0.48678176  0.39229813  0.40812448     0.84100
O298        O  0.40998202  0.29120597  0.33690777    -0.68000
O299        O  0.48810364  0.45437400  0.32731235    -0.87300
C300        C  0.44364959  0.29414344  0.34530166     0.85000
C301        C  0.37748792  0.31040457  0.39761435     1.06500
H302        H  0.47348160  0.37976746  0.34150884     0.38300
O303        O  0.45545715  0.39515708  0.35093144    -1.09900
O304        O  0.39137859  0.44431886  0.34745391    -0.66600
Ni305      Ni  0.41192923  0.40049458  0.32953018     1.26300
O306        O  0.45384507  0.32085161  0.36000855    -0.66800
O307        O  0.43750977  0.43234183  0.30554074    -0.79100
C308        C  0.35647733  0.36965329  0.29855287     0.84300
O309        O  0.36745805  0.40103491  0.30818911    -0.66300
Ni310      Ni  0.48355118  0.43830869  0.36219364     1.27400
Ni311      Ni  0.43103197  0.36452746  0.37563446     1.26100
H312        H  0.36891240  0.38219904  0.36295887     0.38900
O313        O  0.89251850  0.10344110  0.18107729    -0.81100
O314        O  0.86436091  0.20939091  0.27092430    -0.65800
O315        O  0.86188563  0.12345304  0.22799206    -1.12400
C316        C  0.77785621  0.20212077  0.18029490     1.05800
O317        O  0.80210720  0.21675859  0.27169846    -0.79000
O318        O  0.75744428  0.17443671  0.24066777    -0.66600
Ni319      Ni  0.90848827  0.10143675  0.21642285     1.34900
C320        C  0.75913979  0.13943351  0.23476511     0.84600
O321        O  0.89482675  0.14093675  0.27402683    -0.79500
O322        O  0.92695136  0.09699542  0.25124749    -0.89800
C323        C  0.83485398  0.22355604  0.28081849     0.84100
O324        O  0.93843067  0.14647063  0.21116824    -0.68000
O325        O  0.77370328  0.22151777  0.20076137    -0.87300
C326        C  0.93525890  0.17990596  0.22020432     0.85000
C327        C  0.91921693  0.11427587  0.27222811     1.06500
H328        H  0.84859889  0.20829930  0.21538535     0.38300
O329        O  0.83346796  0.19007885  0.22466975    -1.09900
O330        O  0.78558980  0.12489244  0.22114507    -0.66600
Ni331      Ni  0.82914692  0.14624508  0.20338763     1.26300
O332        O  0.90808802  0.18963867  0.23472331    -0.66800
O333        O  0.79704678  0.17124871  0.17901326    -0.79100
C334        C  0.86099603  0.09092240  0.17253226     0.84300
O335        O  0.82964069  0.10171485  0.18224458    -0.66300
Ni336      Ni  0.78939833  0.21721215  0.23562299     1.27400
Ni337      Ni  0.86421597  0.16629239  0.24968256     1.26100
H338        H  0.84825032  0.10365454  0.23691721     0.38900
O339        O  0.68023844  0.25004055  0.99700786    -0.81100
O340        O  0.66019812  0.36354604  0.08963267    -0.65800
O341        O  0.65304722  0.27753888  0.04504301    -1.12400
C342        C  0.56676439  0.35900889  0.50153642     1.05800
O343        O  0.59771001  0.36093338  0.09144710    -0.79000
O344        O  0.54847485  0.32502976  0.06004092    -0.66600
Ni345      Ni  0.69579272  0.24963487  0.03274426     1.34900
C346        C  0.55125904  0.29132927  0.05147769     0.84600
O347        O  0.69105158  0.29335971  0.09045087    -0.79500
O348        O  0.71449995  0.24474169  0.06715277    -0.89800
C349        C  0.62904650  0.37377647  0.09991301     0.84100
O350        O  0.72723485  0.29248173  0.02678140    -0.68000
O351        O  0.56246555  0.37739983  0.02249606    -0.87300
C352        C  0.72737714  0.32684689  0.03433193     0.85000
C353        C  0.71069131  0.26298996  0.08815542     1.06500
H354        H  0.64026998  0.36465929  0.03486927     0.38300
O355        O  0.62626789  0.34508318  0.04370177    -1.09900
O356        O  0.57856883  0.28044789  0.03753996    -0.66600
Ni357      Ni  0.62134690  0.30333067  0.02137063     1.26300
O358        O  0.70277399  0.34104738  0.04958180    -0.66800
O359        O  0.58896348  0.33051219  0.49882660    -0.79100
C360        C  0.64677251  0.24655335  0.48799187     0.84300
O361        O  0.61853874  0.26126395  0.99915585    -0.66300
Ni362      Ni  0.58117794  0.36840602  0.05672446     1.27400
Ni363      Ni  0.65906761  0.32017504  0.06728117     1.26100
H364        H  0.63806729  0.25917152  0.05430662     0.38900
O365        O  0.12375734  0.62893944  0.05796757    -0.81100
O366        O  0.01400873  0.60248870  0.14545826    -0.65800
O367        O  0.10184805  0.59848169  0.10437996    -1.12400
C368        C  0.02539472  0.51476338  0.05499795     1.05800
O369        O  0.00541916  0.54034450  0.14624822    -0.79000
O370        O  0.05037780  0.49547947  0.11649252    -0.66600
Ni371      Ni  0.12471786  0.64469705  0.09333048     1.34900
C372        C  0.08544155  0.49656612  0.11087635     0.84600
O373        O  0.08246775  0.63237117  0.15012956    -0.79500
O374        O  0.12807020  0.66289443  0.12820096    -0.89800
C375        C  0.99925093  0.57340475  0.15534781     0.84100
O376        O  0.08023910  0.67527204  0.08743035    -0.68000
O377        O  0.00558156  0.51074005  0.07523738    -0.87300
C378        C  0.04642711  0.67243931  0.09562161     0.85000
C379        C  0.10985557  0.65589263  0.14884073     1.06500
H380        H  0.01759657  0.58604883  0.08993984     0.38300
O381        O  0.03538654  0.57081763  0.09961278    -1.09900
O382        O  0.10046382  0.52235938  0.09713761    -0.66600
Ni383      Ni  0.08012899  0.56603129  0.07911302     1.26300
O384        O  0.03568070  0.64527292  0.10962665    -0.66800
O385        O  0.05612966  0.53397931  0.05411010    -0.79100
C386        C  0.13709257  0.59751852  0.04965072     0.84300
O387        O  0.12575136  0.56609490  0.05888425    -0.66300
Ni388      Ni  0.00765216  0.52710432  0.11010419     1.27400
Ni389      Ni  0.05810190  0.60150621  0.12519244     1.26100
H390        H  0.12111804  0.58457938  0.11373927     0.38900
O391        O  0.97266082  0.42559016  0.37120478    -0.81100
O392        O  0.85897985  0.40258822  0.46139497    -0.65800
O393        O  0.94604668  0.39426963  0.41806473    -1.12400
C394        C  0.86644002  0.31292382  0.37048012     1.05800
O395        O  0.85610354  0.33960969  0.46180979    -0.79000
O396        O  0.89861022  0.29297297  0.43216123    -0.66600
Ni397      Ni  0.97546152  0.43683659  0.40751682     1.34900
C398        C  0.93150504  0.29444943  0.42231071     0.84600
O399        O  0.93044903  0.43114850  0.46412756    -0.79500
O400        O  0.98216773  0.45083625  0.44258041    -0.89800
C401        C  0.84567880  0.37187911  0.47051883     0.84100
O402        O  0.93458508  0.47184334  0.40402085    -0.68000
O403        O  0.84995928  0.30508660  0.39162840    -0.87300
C404        C  0.89961049  0.47188796  0.40993232     0.85000
C405        C  0.96257873  0.44798084  0.46300684     1.06500
H406        H  0.85856638  0.38460215  0.40665740     0.38300
O407        O  0.87798568  0.36976098  0.41511422    -1.09900
O408        O  0.94129148  0.32032456  0.40688784    -0.66600
Ni409      Ni  0.92003037  0.36582442  0.39278911     1.26300
O410        O  0.88371204  0.44557551  0.42274043    -0.66800
O411        O  0.89261337  0.33750969  0.36835019    -0.79100
C412        C  0.97823991  0.39276499  0.36164474     0.84300
O413        O  0.96261189  0.36371407  0.37096820    -0.66300
Ni414      Ni  0.85434246  0.32385100  0.42640786     1.27400
Ni415      Ni  0.90311031  0.40066994  0.43985379     1.26100
H416        H  0.96356901  0.37773245  0.42695423     0.38900
C417        C  0.01585494  0.47965335  0.48648848    -0.21500
C418        C  0.97865266  0.46489689  0.48659651    -0.09500
C419        C  0.95763599  0.46617008  0.00943286     0.29300
C420        C  0.97348811  0.48181231  0.03145356    -0.21500
C421        C  0.01053639  0.49680783  0.03138145    -0.09500
C422        C  0.03167716  0.49554683  0.00856215     0.29300
F423        F  0.06754757  0.50953793  0.50744570    -0.20100
H424        H  0.03293338  0.47892724  0.46926142     0.17700
H425        H  0.95620410  0.48262864  0.04858258     0.17700
F426        F  0.92153895  0.45279946  0.01059838    -0.20100
C427        C  0.75164765  0.37599019  0.50437904    -0.21500
C428        C  0.75854712  0.35028788  0.02436190    -0.09500
C429        C  0.79602956  0.33887943  0.02951931     0.29300
C430        C  0.82550349  0.34954450  0.01320088    -0.21500
C431        C  0.81813197  0.37220392  0.49173499    -0.09500
C432        C  0.78137761  0.38708885  0.48813813     0.29300
F433        F  0.77332591  0.40834022  0.46718521    -0.20100
H434        H  0.72279674  0.38437980  0.49980542     0.17700
H435        H  0.85358934  0.33763318  0.01616623     0.17700
F436        F  0.80340039  0.31414932  0.04880582    -0.20100
C437        C  0.82129181  0.27259177  0.34493429    -0.21500
C438        C  0.85620152  0.29175041  0.34709772    -0.09500
C439        C  0.88242400  0.28956551  0.32678194     0.29300
C440        C  0.87431443  0.26799690  0.30530419    -0.21500
C441        C  0.83998374  0.24820987  0.30325283    -0.09500
C442        C  0.81298783  0.25115589  0.32297904     0.29300
F443        F  0.77949464  0.23225799  0.32150942    -0.20100
H444        H  0.80063360  0.27399633  0.36026332     0.17700
H445        H  0.89541332  0.26644064  0.29022691     0.17700
F446        F  0.91676415  0.30703149  0.32788186    -0.20100
C447        C  0.71853708  0.26228041  0.13542422    -0.21500
C448        C  0.72895044  0.24757298  0.11141518    -0.09500
C449        C  0.75529032  0.21731317  0.11027356     0.29300
C450        C  0.77062049  0.20231153  0.13273752    -0.21500
C451        C  0.76009333  0.21705623  0.15673168    -0.09500
C452        C  0.73374718  0.24731374  0.15780976     0.29300
F453        F  0.72218772  0.26242731  0.18045366    -0.20100
H454        H  0.69804768  0.28523214  0.13702454     0.17700
H455        H  0.79113285  0.17936338  0.13127733     0.17700
F456        F  0.76656330  0.20228399  0.08755112    -0.20100
C457        C  0.51268352  0.34825825  0.44041338    -0.21500
C458        C  0.50584076  0.38604955  0.43300158    -0.09500
C459        C  0.51704498  0.41578299  0.44951788     0.29300
C460        C  0.53603554  0.40735373  0.47250325    -0.21500
C461        C  0.54401282  0.36935970  0.47900700    -0.09500
C462        C  0.53115541  0.33998780  0.46304739     0.29300
F463        F  0.53624689  0.30288512  0.46940596    -0.20100
H464        H  0.50403872  0.32452373  0.42852915     0.17700
H465        H  0.54532806  0.43035554  0.48480910     0.17700
F466        F  0.50980928  0.45264581  0.44353671    -0.20100
C467        C  0.64910165  0.43498692  0.12029363    -0.21500
C468        C  0.62769949  0.40128928  0.12125177    -0.09500
C469        C  0.59901789  0.39781942  0.13976893     0.29300
C470        C  0.58918897  0.42884392  0.15499412    -0.21500
C471        C  0.60709698  0.46412240  0.15174887    -0.09500
C472        C  0.63867020  0.46654479  0.13537049     0.29300
F473        F  0.65636586  0.50031556  0.13168388    -0.20100
H474        H  0.67120742  0.43820307  0.10605806     0.17700
H475        H  0.56493365  0.42635421  0.16765550     0.17700
F476        F  0.57807436  0.36553573  0.14151749    -0.20100
C477        C  0.46205009  0.46645853  0.26059108    -0.21500
C478        C  0.48330240  0.46868725  0.28325906    -0.09500
C479        C  0.51889714  0.48702103  0.28276271     0.29300
C480        C  0.53246157  0.50285601  0.26013239    -0.21500
C481        C  0.51103761  0.50087166  0.23752224    -0.09500
C482        C  0.47560020  0.48225060  0.23798361     0.29300
F483        F  0.45364974  0.47934546  0.21672030    -0.20100
H484        H  0.43470751  0.45241575  0.26024938     0.17700
H485        H  0.55981824  0.51687655  0.26042445     0.17700
F486        F  0.54090432  0.48965079  0.30401001    -0.20100
C487        C  0.53038336  0.22432833  0.05815568    -0.21500
C488        C  0.52103910  0.26323204  0.05665468    -0.09500
C489        C  0.48257323  0.27399916  0.05640738     0.29300
C490        C  0.45424029  0.24618587  0.05598125    -0.21500
C491        C  0.46364483  0.20720678  0.05610506    -0.09500
C492        C  0.50202003  0.19651479  0.05806662     0.29300
F493        F  0.51232832  0.15927065  0.05766811    -0.20100
H494        H  0.55986810  0.21536919  0.05824494     0.17700
H495        H  0.42484911  0.25513489  0.05436659     0.17700
F496        F  0.47238952  0.31114949  0.05432267    -0.20100
C497        C  0.32872078  0.27709640  0.42462196    -0.21500
C498        C  0.36625097  0.28968169  0.42093427    -0.09500
C499        C  0.39353432  0.28234985  0.43993556     0.29300
C500        C  0.38357366  0.26280535  0.46192578    -0.21500
C501        C  0.34627649  0.24988913  0.46572960    -0.09500
C502        C  0.31862873  0.25753445  0.44698698     0.29300
F503        F  0.28238419  0.24522778  0.44987307    -0.20100
H504        H  0.30722886  0.28254187  0.41025880     0.17700
H505        H  0.40551356  0.25747853  0.47601992     0.17700
F506        F  0.43035014  0.29294509  0.43699981    -0.20100
C507        C  0.98573932  0.27512141  0.21501864    -0.21500
C508        C  0.02399926  0.26373189  0.21473843    -0.09500
C509        C  0.03249094  0.22459882  0.21265783     0.29300
C510        C  0.00331934  0.19749469  0.21248636    -0.21500
C511        C  0.96514913  0.20873736  0.21493548    -0.09500
C512        C  0.95658343  0.24800021  0.21538835     0.29300
F513        F  0.92003686  0.26020642  0.21714775    -0.20100
H514        H  0.97842094  0.30498741  0.21668487     0.17700
H515        H  0.01078079  0.16757537  0.21206057     0.17700
F516        F  0.06912610  0.21245205  0.21176765    -0.20100
C517        C  0.30164952  0.32938572  0.24360540    -0.21500
C518        C  0.26573221  0.34587327  0.24750011    -0.09500
C519        C  0.26218327  0.37647521  0.26475974     0.29300
C520        C  0.29348342  0.38752402  0.27975817    -0.21500
C521        C  0.32829015  0.36798389  0.27767282    -0.09500
C522        C  0.33264048  0.34027476  0.25846710     0.29300
F523        F  0.36617174  0.32153666  0.25547728    -0.20100
H524        H  0.30503882  0.30593075  0.23028115     0.17700
H525        H  0.28951024  0.40874218  0.29459735     0.17700
F526        F  0.22776185  0.39272745  0.26913816    -0.20100
C527        C  0.24749922  0.25913327  0.11396188    -0.21500
C528        C  0.25839372  0.22061799  0.11253514    -0.09500
C529        C  0.25304751  0.19734359  0.13405053     0.29300
C530        C  0.23792513  0.21257275  0.15652076    -0.21500
C531        C  0.22758900  0.25122346  0.15813458    -0.09500
C532        C  0.23231935  0.27439084  0.13645547     0.29300
F533        F  0.22289522  0.31187685  0.13695716    -0.20100
H534        H  0.25139568  0.27783511  0.09775557     0.17700
H535        H  0.23403636  0.19376876  0.17267070     0.17700
F536        F  0.26202977  0.15975786  0.13342940    -0.20100
C537        C  0.02442890  0.40054472  0.29642617    -0.21500
C538        C  0.04819573  0.36815670  0.29666409    -0.09500
C539        C  0.05027380  0.34617563  0.31914781     0.29300
C540        C  0.02805570  0.35550228  0.34021460    -0.21500
C541        C  0.00368189  0.38703434  0.33971909    -0.09500
C542        C  0.00244376  0.41012232  0.31788549     0.29300
F543        F  0.97866595  0.44055612  0.31680493    -0.20100
H544        H  0.02232723  0.41810011  0.27949997     0.17700
H545        H  0.02951921  0.33755661  0.35701285     0.17700
F546        F  0.07285561  0.31487241  0.32077108    -0.20100
C547        C  0.14855424  0.44318249  0.15635768    -0.21500
C548        C  0.13245888  0.40675798  0.15411087    -0.09500
C549        C  0.10781076  0.39907219  0.13364249     0.29300
C550        C  0.09612218  0.42822348  0.11746843    -0.21500
C551        C  0.10876475  0.46553606  0.12137270    -0.09500
C552        C  0.13668234  0.47263555  0.14002326     0.29300
F553        F  0.14893019  0.50865878  0.14439267    -0.20100
H554        H  0.16724461  0.44973099  0.17221850     0.17700
H555        H  0.07452110  0.42231173  0.10324187     0.17700
F556        F  0.09215610  0.36405115  0.13082860    -0.20100
C557        C  0.20109747  0.58135655  0.03149420    -0.21500
C558        C  0.16539039  0.59902554  0.02881724    -0.09500
C559        C  0.15971549  0.62479263  0.50870413     0.29300
C560        C  0.19000536  0.63546280  0.49316534    -0.21500
C561        C  0.22660263  0.62091072  0.99742064    -0.09500
C562        C  0.23175613  0.59239423  0.01593232     0.29300
F563        F  0.26701261  0.57848863  0.02087949    -0.20100
H564        H  0.20613467  0.56179253  0.04710484     0.17700
H565        H  0.18553424  0.65757511  0.47907048     0.17700
F566        F  0.12547625  0.64199523  0.50539486    -0.20100
C567        C  0.43178540  0.61852019  0.06911884    -0.21500
C568        C  0.44031730  0.60030219  0.04579209    -0.09500
C569        C  0.46813506  0.57122488  0.04558624     0.29300
C570        C  0.48774742  0.56193255  0.06807340    -0.21500
C571        C  0.48011208  0.58162503  0.09085405    -0.09500
C572        C  0.45148831  0.60942511  0.09133600     0.29300
F573        F  0.44282344  0.62811233  0.11337061    -0.20100
H574        H  0.41020028  0.64050164  0.07021958     0.17700
H575        H  0.50997519  0.54055532  0.06746055     0.17700
F576        F  0.47720732  0.55248750  0.02367934    -0.20100
C577        C  0.34335138  0.52538468  0.40615501    -0.21500
C578        C  0.35855158  0.56197967  0.40286421    -0.09500
C579        C  0.38275472  0.56883254  0.38203318     0.29300
C580        C  0.39481378  0.53885271  0.36649099    -0.21500
C581        C  0.38289624  0.50158706  0.37137894    -0.09500
C582        C  0.35557453  0.49515019  0.39049382     0.29300
F583        F  0.34429637  0.45918364  0.39595851    -0.20100
H584        H  0.32514689  0.51945353  0.42235534     0.17700
H585        H  0.41604037  0.54423144  0.35193730     0.17700
F586        F  0.39754315  0.60398544  0.37820518    -0.20100
C587        C  0.15540036  0.69578664  0.17430699    -0.21500
C588        C  0.12065093  0.67615757  0.17261787    -0.09500
C589        C  0.09603920  0.67642536  0.19389494     0.29300
C590        C  0.10578285  0.69631525  0.21593744    -0.21500
C591        C  0.14017472  0.71620571  0.21752519    -0.09500
C592        C  0.16524691  0.71553919  0.19665361     0.29300
F593        F  0.19826133  0.73534170  0.19740080    -0.20100
H594        H  0.17486646  0.69608610  0.15827006     0.17700
H595        H  0.08600016  0.69654760  0.23183043     0.17700
F596        F  0.06193320  0.65846585  0.19333612    -0.20100
C597        C  0.23395538  0.74907421  0.41012433    -0.21500
C598        C  0.25911042  0.71792461  0.40849214    -0.09500
C599        C  0.26766254  0.70268590  0.38424785     0.29300
C600        C  0.25135073  0.71831274  0.36232746    -0.21500
C601        C  0.22616847  0.74944631  0.36393467    -0.09500
C602        C  0.21764864  0.76473133  0.38818397     0.29300
F603        F  0.19312084  0.79436479  0.39088777    -0.20100
H604        H  0.22673703  0.76146490  0.42849184     0.17700
H605        H  0.25862704  0.70589190  0.34398066     0.17700
F606        F  0.29235339  0.67318911  0.38151788    -0.20100
C607        C  0.00191775  0.76990875  0.08917030    -0.21500
C608        C  0.96288607  0.76135487  0.09013875    -0.09500
C609        C  0.95166864  0.72301510  0.08932051     0.29300
C610        C  0.97915912  0.69404423  0.08947643    -0.21500
C611        C  0.01821220  0.70273093  0.09008905    -0.09500
C612        C  0.02931812  0.74103794  0.08908420     0.29300
F613        F  0.06655899  0.75077553  0.09035991    -0.20100
H614        H  0.01136157  0.79920729  0.08977621     0.17700
H615        H  0.96988093  0.66471265  0.09028851     0.17700
F616        F  0.91437749  0.71344999  0.09050271    -0.20100
C617        C  0.89808154  0.03936618  0.11501313    -0.21500
C618        C  0.88300114  0.00295638  0.11889349    -0.09500
C619        C  0.85418213  0.99797265  0.13715870     0.29300
C620        C  0.84359929  0.02841771  0.15312255    -0.21500
C621        C  0.86207486  0.06367466  0.15108148    -0.09500
C622        C  0.88784601  0.06950467  0.13098984     0.29300
F623        F  0.90550619  0.10352658  0.12818498    -0.20100
H624        H  0.92043065  0.04361511  0.10105530     0.17700
H625        H  0.82388160  0.02337538  0.16864563     0.17700
F626        F  0.83974520  0.96285544  0.14161648    -0.20100
C627        C  0.05307959  0.84138043  0.20133520    -0.21500
C628        C  0.05071223  0.86558962  0.22277427    -0.09500
C629        C  0.03046873  0.90013240  0.22052712     0.29300
C630        C  0.01178052  0.90916592  0.19764305    -0.21500
C631        C  0.01273875  0.88381448  0.17687752    -0.09500
C632        C  0.03433747  0.85028237  0.17870439     0.29300
F633        F  0.03714901  0.82589318  0.15857220    -0.20100
H634        H  0.06885683  0.81489322  0.20213803     0.17700
H635        H  0.99536428  0.93522549  0.19648528     0.17700
F636        F  0.02837899  0.92500083  0.24038115    -0.20100
C637        C  0.97848711  0.19830905  0.43216224    -0.21500
C638        C  0.01722073  0.20806462  0.43082881    -0.09500
C639        C  0.02720383  0.24665836  0.42967450     0.29300
C640        C  0.99896433  0.27463804  0.42817889    -0.21500
C641        C  0.96023369  0.26485655  0.42826202    -0.09500
C642        C  0.95016360  0.22642922  0.43119005     0.29300
F643        F  0.91312901  0.21575210  0.43107867    -0.20100
H644        H  0.97013753  0.16868585  0.43284864     0.17700
H645        H  0.00743968  0.30404820  0.42594789     0.17700
F646        F  0.06415233  0.25716633  0.42766892    -0.20100
C647        C  0.96068642  0.12072277  0.33863639    -0.21500
C648        C  0.98086931  0.08644849  0.34058805    -0.09500
C649        C  0.97965420  0.06019657  0.32028255     0.29300
C650        C  0.95945162  0.06908619  0.29794928    -0.21500
C651        C  0.93979091  0.10389995  0.29587774    -0.09500
C652        C  0.94029778  0.12942764  0.31673410     0.29300
F653        F  0.92211787  0.16355470  0.31587335    -0.20100
H654        H  0.96096844  0.14125174  0.35415275     0.17700
H655        H  0.95933509  0.04887637  0.28227326     0.17700
F656        F  0.99910291  0.02685427  0.32160388    -0.20100
C657        C  0.10391347  0.90186164  0.38800956    -0.21500
C658        C  0.12848130  0.90737211  0.36726171    -0.09500
C659        C  0.14648772  0.94286398  0.36448972     0.29300
C660        C  0.13634129  0.97353259  0.38052531    -0.21500
C661        C  0.10867181  0.96872488  0.39961365    -0.09500
C662        C  0.09440503  0.93206261  0.40420448     0.38900
F663        F  0.06804094  0.92644249  0.42277155    -0.20100
H664        H  0.08991671  0.87472974  0.39058100     0.17700
H665        H  0.14724138  0.00164445  0.37642679     0.17700
F666        F  0.17033635  0.94905668  0.34454651    -0.20100
C667        C  0.01618329  0.01749661  0.01044042    -0.21500
C668        C  0.00911449  0.00125355  0.48638774    -0.09500
C669        C  0.98598656  0.96875407  0.48465304     0.29300
C670        C  0.97037793  0.95284345  0.50667746    -0.21500
C671        C  0.97769501  0.96887926  0.03077356    -0.09500
C672        C  0.00051951  0.00166786  0.03245421     0.29300
F673        F  0.00722894  0.01886126  0.05529881    -0.20100
H674        H  0.03325648  0.04297167  0.01216452     0.17700
H675        H  0.95332154  0.92737058  0.50492723     0.17700
F676        F  0.97922520  0.95176746  0.46175380    -0.20100
C677        C  0.10161806  0.18303242  0.33004835    -0.21500
C678        C  0.12548394  0.18503477  0.35153408    -0.09500
C679        C  0.15958299  0.20592451  0.34977160     0.29300
C680        C  0.16920136  0.22423143  0.32681241    -0.21500
C681        C  0.14465554  0.22241674  0.30567130    -0.09500
C682        C  0.11095188  0.20135223  0.30750538     0.29300
F683        F  0.08673403  0.19843350  0.28736621    -0.20100
H684        H  0.07514009  0.16743103  0.33061008     0.17700
H685        H  0.19507352  0.24075986  0.32580873     0.17700
F686        F  0.18348030  0.20876575  0.37005060    -0.20100
C687        C  0.15841511  0.12569358  0.01409677    -0.21500
C688        C  0.16436408  0.10276904  0.49247546    -0.09500
C689        C  0.20077219  0.08771828  0.48773326     0.29300
C690        C  0.23142544  0.09826824  0.50332808    -0.21500
C691        C  0.22582687  0.12379479  0.02367737    -0.09500
C692        C  0.18886534  0.13604978  0.02965729     0.29300
F693        F  0.18288252  0.16100146  0.04914213    -0.20100
H694        H  0.13059615  0.13775369  0.01788819     0.17700
H695        H  0.25991141  0.08947826  0.49806133     0.17700
F696        F  0.20750211  0.06676635  0.46634223    -0.20100
C697        C  0.00137796  0.69529576  0.30650821    -0.21500
C698        C  0.96310795  0.70625008  0.30536292    -0.09500
C699        C  0.95393854  0.74532661  0.30687659     0.29300
C700        C  0.98268785  0.77284273  0.30770526    -0.21500
C701        C  0.02102415  0.76194077  0.30652797    -0.09500
C702        C  0.03009803  0.72275773  0.30686364     0.29300
F703        F  0.06685559  0.71093393  0.30624137    -0.20100
H704        H  0.00917285  0.66549491  0.30537151     0.17700
H705        H  0.97490944  0.80268248  0.30743555     0.17700
F706        F  0.91713319  0.75699137  0.30649925    -0.20100
C707        C  0.72889130  0.59408794  0.25853175    -0.21500
C708        C  0.72377704  0.62478369  0.27548529    -0.09500
C709        C  0.68737885  0.64074634  0.27833914     0.29300
C710        C  0.65778272  0.62930607  0.26241895    -0.21500
C711        C  0.66384283  0.60171614  0.24339313    -0.09500
C712        C  0.69897682  0.58249299  0.24249429     0.29300
F713        F  0.70577032  0.55589396  0.22417373    -0.20100
H714        H  0.75685314  0.58170504  0.25591630     0.17700
H715        H  0.63084418  0.64423700  0.26358788     0.17700
F716        F  0.68142406  0.67001334  0.29490412    -0.20100
C717        C  0.87904572  0.76845090  0.21397631    -0.21500
C718        C  0.84311753  0.75172366  0.21655413    -0.09500
C719        C  0.81560030  0.75805541  0.19753334     0.29300
C720        C  0.82494390  0.77911065  0.17565207    -0.21500
C721        C  0.86152547  0.79470922  0.17272783    -0.09500
C722        C  0.88819540  0.78982145  0.19254309     0.29300
F723        F  0.92385393  0.80425486  0.19090925    -0.20100
H724        H  0.90057238  0.76451931  0.22855999     0.17700
H725        H  0.80373635  0.78277311  0.16085053     0.17700
F726        F  0.78043691  0.74260935  0.19950716    -0.20100
C727        C  0.95367169  0.56414745  0.22097757    -0.21500
C728        C  0.93495671  0.59958226  0.22285474    -0.09500
C729        C  0.93562734  0.62421963  0.20165164     0.29300
C730        C  0.95534778  0.61421660  0.17967696    -0.21500
C731        C  0.97501423  0.57958381  0.17797898    -0.09500
C732        C  0.97341987  0.55401643  0.19858003     0.29300
F733        F  0.99229137  0.52030644  0.19755751    -0.20100
H734        H  0.95336754  0.54452351  0.23690089     0.17700
H735        H  0.95590762  0.63427545  0.16397790     0.17700
F736        F  0.91852897  0.65890854  0.20229186    -0.20100
C737        C  0.88148692  0.57094368  0.38837800    -0.21500
C738        C  0.85637605  0.56460007  0.36799986    -0.09500
C739        C  0.83822872  0.52911295  0.36587696     0.29300
C740        C  0.84893119  0.49906686  0.38204315    -0.21500
C741        C  0.87738283  0.50452051  0.40051876    -0.09500
C742        C  0.89164425  0.54127946  0.40468537     0.29300
F743        F  0.91834223  0.54750536  0.42295981    -0.20100
H744        H  0.89548307  0.59819008  0.39045970     0.17700
H745        H  0.83790360  0.47082088  0.37841388     0.17700
F746        F  0.81382907  0.52220415  0.34632090    -0.20100
C747        C  0.48417480  0.77294110  0.46179938    -0.21500
C748        C  0.52243196  0.76188236  0.46319527    -0.09500
C749        C  0.53158334  0.72281734  0.46215657     0.29300
C750        C  0.50281192  0.69543379  0.46165253    -0.21500
C751        C  0.46452931  0.70648467  0.46282791    -0.09500
C752        C  0.45540122  0.74556576  0.46192950     0.29300
F753        F  0.41863634  0.75736222  0.46253089    -0.20100
H754        H  0.47643321  0.80278150  0.46255281     0.17700
H755        H  0.51054134  0.66559487  0.46232769     0.17700
F756        F  0.56834538  0.71104973  0.46293177    -0.20100
C757        C  0.60916344  0.70086054  0.05606835    -0.21500
C758        C  0.64306190  0.72142264  0.05443059    -0.09500
C759        C  0.66822172  0.72154733  0.07530212     0.29300
C760        C  0.65882999  0.70171945  0.09769538    -0.21500
C761        C  0.62454652  0.68126266  0.09929154    -0.09500
C762        C  0.59990841  0.68100764  0.07803568     0.29300
F763        F  0.56613906  0.66242844  0.07848757    -0.20100
H764        H  0.58933548  0.70041221  0.04020662     0.17700
H765        H  0.67825746  0.70243930  0.11374768     0.17700
F766        F  0.70087285  0.74193756  0.07444577    -0.20100
C767        C  0.79759024  0.83206207  0.49144419    -0.21500
C768        C  0.76101537  0.84669049  0.99593142    -0.09500
C769        C  0.75600392  0.87479105  0.01482573     0.29300
C770        C  0.78671883  0.88555499  0.03041009    -0.21500
C771        C  0.82239794  0.86797225  0.02745439    -0.09500
C772        C  0.82799528  0.84243134  0.00707870     0.29300
F773        F  0.86221501  0.82522328  0.50357591    -0.20100
H774        H  0.80192209  0.81011487  0.47711644     0.17700
H775        H  0.78172348  0.90477928  0.04629927     0.17700
F776        F  0.72073370  0.88833246  0.02020507    -0.20100
C777        C  0.75577052  0.72355307  0.40935245    -0.21500
C778        C  0.72755558  0.75185055  0.40758510    -0.09500
C779        C  0.71724608  0.76568154  0.38334289     0.29300
C780        C  0.73423725  0.75074039  0.36142327    -0.21500
C781        C  0.76194280  0.72195110  0.36315238    -0.09500
C782        C  0.77298967  0.70882386  0.38742674     0.29300
F783        F  0.80089068  0.68236144  0.39010755    -0.20100
H784        H  0.76471609  0.71282589  0.42780066     0.17700
H785        H  0.72528948  0.76152743  0.34299208     0.17700
F786        F  0.69007097  0.79288011  0.38064463    -0.20100
C787        C  0.45165484  0.72416888  0.17870337    -0.21500
C788        C  0.46232279  0.76221854  0.18208747    -0.09500
C789        C  0.50083160  0.77068276  0.18674968     0.29300
C790        C  0.52834448  0.74177558  0.18643493    -0.21500
C791        C  0.51809627  0.70409304  0.18084144    -0.09500
C792        C  0.47918604  0.69538438  0.17779434     0.29300
F793        F  0.46780120  0.65927159  0.17269690    -0.20100
H794        H  0.42228104  0.71700560  0.17487045     0.17700
H795        H  0.55794035  0.74930832  0.18887590     0.17700
F796        F  0.51208634  0.80720113  0.19042165    -0.20100
C797        C  0.34831025  0.00016822  0.13329802    -0.21500
C798        C  0.37889858  0.00445874  0.15032375    -0.09500
C799        C  0.39527536  0.04060478  0.15342319     0.29300
C800        C  0.38459934  0.07056525  0.13756086    -0.21500
C801        C  0.35713468  0.06528204  0.11846188    -0.09500
C802        C  0.33723860  0.03060148  0.11747159     0.29300
F803        F  0.31033801  0.02473515  0.09931093    -0.20100
H804        H  0.33551380  0.97248001  0.13052401     0.17700
H805        H  0.39999866  0.09715147  0.13886027     0.17700
F806        F  0.42434120  0.04588313  0.17014257    -0.20100
C807        C  0.52427684  0.84773743  0.08903752    -0.21500
C808        C  0.50565880  0.88283636  0.09175839    -0.09500
C809        C  0.50710643  0.90917107  0.07158831     0.29300
C810        C  0.52675544  0.90003967  0.04898916    -0.21500
C811        C  0.54551522  0.86477936  0.04640315    -0.09500
C812        C  0.54393139  0.83870217  0.06680768     0.29300
F813        F  0.56058573  0.80384837  0.06523231    -0.20100
H814        H  0.52350158  0.82688034  0.10425061     0.17700
H815        H  0.52737810  0.92053941  0.03357950     0.17700
F816        F  0.48854967  0.94298463  0.07334928    -0.20100
C817        C  0.38532584  0.79122742  0.07841840    -0.21500
C818        C  0.36075846  0.78938319  0.09958053    -0.09500
C819        C  0.32735491  0.76744573  0.09762155     0.29300
C820        C  0.31940235  0.74742856  0.07504013    -0.21500
C821        C  0.34481121  0.74859723  0.05439583    -0.09500
C822        C  0.37760016  0.77106459  0.05617059     0.29300
F823        F  0.40228975  0.77366923  0.03628315    -0.20100
H824        H  0.41113829  0.80789993  0.07908200     0.17700
H825        H  0.29407229  0.73007503  0.07397540     0.17700
F826        F  0.30263917  0.76488016  0.11746019    -0.20100
C827        C  0.28379754  0.88540178  0.24002253    -0.21500
C828        C  0.31972879  0.86819734  0.24251237    -0.09500
C829        C  0.32579499  0.84187080  0.26226456     0.29300
C830        C  0.29576330  0.83050957  0.27776560    -0.21500
C831        C  0.25905674  0.84486272  0.27380177    -0.09500
C832        C  0.25338933  0.87361232  0.25551879     0.29300
F833        F  0.21791496  0.88707549  0.25072655    -0.20100
H834        H  0.27842365  0.90517405  0.22458054     0.17700
H835        H  0.30054656  0.80811864  0.29161496     0.17700
F836        F  0.36014612  0.82471786  0.26517741    -0.20100
C837        C  0.46103019  0.22696237  0.33430915    -0.21500
C838        C  0.47233997  0.26466049  0.33882140    -0.09500
C839        C  0.51152666  0.27297293  0.33986461     0.29300
C840        C  0.53848699  0.24372400  0.33846401    -0.21500
C841        C  0.52689725  0.20574461  0.33654034    -0.09500
C842        C  0.48801495  0.19765095  0.33342120     0.29300
F843        F  0.47601042  0.16116332  0.33087013    -0.20100
H844        H  0.43116496  0.21979997  0.33322293     0.17700
H845        H  0.56826042  0.25053356  0.34095958     0.17700
F846        F  0.52380949  0.30916191  0.34350164    -0.20100
C847        C  0.48242870  0.06146269  0.45020069    -0.21500
C848        C  0.48158033  0.08682108  0.42948552    -0.09500
C849        C  0.45891866  0.11968596  0.43115794     0.29300
C850        C  0.43811843  0.12740786  0.45318578    -0.21500
C851        C  0.43948709  0.10286006  0.47436099    -0.09500
C852        C  0.46185159  0.06952089  0.47263149     0.29300
F853        F  0.46405419  0.04486539  0.49250242    -0.20100
H854        H  0.49984674  0.03602921  0.44928972     0.17700
H855        H  0.42131770  0.15327934  0.45369563     0.17700
F856        F  0.45657600  0.14441473  0.41130722    -0.20100
C857        C  0.59989821  0.89837103  0.38269027    -0.21500
C858        C  0.62692023  0.90465931  0.40196997    -0.09500
C859        C  0.64567547  0.93989093  0.40309936     0.29300
C860        C  0.63425014  0.96968373  0.38697627    -0.21500
C861        C  0.60402430  0.96444328  0.36981375    -0.09500
C862        C  0.58846595  0.92796450  0.36674050     0.29300
F863        F  0.55970617  0.92190258  0.34990321    -0.20100
H864        H  0.58529276  0.87133459  0.38141142     0.17700
H865        H  0.64626400  0.99773141  0.38973959     0.17700
F866        F  0.67141371  0.94697715  0.42181838    -0.20100
C867        C  0.47141597  0.98316419  0.28404514    -0.21500
C868        C  0.50549420  0.00395776  0.28278838    -0.09500
C869        C  0.52295893  0.00909224  0.25887354     0.29300
C870        C  0.50724715  0.99281276  0.23700038    -0.21500
C871        C  0.47369337  0.97123230  0.23829412    -0.09500
C872        C  0.45555049  0.96703243  0.26210904     0.29300
F873        F  0.42282962  0.94698307  0.26443508    -0.20100
H874        H  0.45697180  0.97905739  0.30211347     0.17700
H875        H  0.52174764  0.99702596  0.21896874     0.17700
F876        F  0.55505424  0.03007909  0.25640956    -0.20100
C877        C  0.59568356  0.19703604  0.43373291    -0.21500
C878        C  0.62585012  0.18403860  0.41855885    -0.09500
C879        C  0.66333098  0.19256481  0.42575356     0.29300
C880        C  0.67027821  0.21309315  0.44832921    -0.21500
C881        C  0.63991258  0.22564649  0.46377319    -0.09500
C882        C  0.60238925  0.21755330  0.45599249     0.29300
F883        F  0.57184931  0.22850770  0.47011150    -0.20100
H884        H  0.56654431  0.19104056  0.42838610     0.17700
H885        H  0.69936137  0.21887829  0.45381567     0.17700
F886        F  0.69309604  0.17977633  0.41160450    -0.20100
C887        C  0.70473227  0.07845930  0.28086774    -0.21500
C888        C  0.66786414  0.09286612  0.27693788    -0.09500
C889        C  0.66076928  0.11526768  0.25524775     0.29300
C890        C  0.69065082  0.12654670  0.23944883    -0.21500
C891        C  0.72814265  0.11564050  0.24490317    -0.09500
C892        C  0.73484646  0.08982700  0.26492923     0.29300
F893        F  0.77092016  0.07942384  0.27095874    -0.20100
H894        H  0.71092438  0.06169786  0.29771818     0.17700
H895        H  0.68496461  0.14666885  0.22425037     0.17700
F896        F  0.62542754  0.12936819  0.25082457    -0.20100
O897        O  0.62960510  0.12669132  0.80607412    -0.81100
O898        O  0.51976207  0.10951432  0.89596900    -0.65800
O899        O  0.60628643  0.09997943  0.85339760    -1.12400
C900        C  0.52161809  0.02091958  0.80630642     1.05800
O901        O  0.51100499  0.04746926  0.89753981    -0.79000
O902        O  0.54757219  0.99835519  0.86532575    -0.66600
Ni903      Ni  0.63111512  0.14453217  0.84100389     1.34900
C904        C  0.58277824  0.99747563  0.86004976     0.84600
O905        O  0.58931721  0.13739194  0.89855010    -0.79500
O906        O  0.63519498  0.16537841  0.87523432    -0.89800
C907        C  0.50520963  0.08071451  0.90649312     0.84100
O908        O  0.58760599  0.17594273  0.83406933    -0.68000
O909        O  0.50117189  0.01985362  0.82647095    -0.87300
C910        C  0.55401589  0.17511557  0.84286465     0.85000
C911        C  0.61674861  0.16059402  0.89605255     1.06500
H912        H  0.52132672  0.09161237  0.84031674     0.38300
O913        O  0.53837656  0.07574054  0.85010954    -1.09900
O914        O  0.59984578  0.02346331  0.84762602    -0.66600
Ni915      Ni  0.58180617  0.06760857  0.82912078     1.26300
O916        O  0.54267453  0.15004844  0.85836931    -0.66800
O917        O  0.55464405  0.03603086  0.80537133    -0.79100
C918        C  0.64024901  0.09401756  0.79824562     0.84300
O919        O  0.62671696  0.06388557  0.80811852    -0.66300
Ni920      Ni  0.50788317  0.03467023  0.86139219     1.27400
Ni921      Ni  0.56324524  0.10615161  0.87480749     1.26100
H922        H  0.62508452  0.08546733  0.86270632     0.38900
O923        O  0.47780672  0.92294346  0.62404096    -0.81100
O924        O  0.35827610  0.90187401  0.71204728    -0.65800
O925        O  0.44814235  0.89517234  0.67116073    -1.12400
C926        C  0.37136221  0.80993958  0.62327570     1.05800
O927        O  0.36165784  0.83917888  0.71334930    -0.79000
O928        O  0.40033080  0.78991801  0.68305447    -0.66600
Ni929      Ni  0.47690251  0.93749899  0.66002220     1.34900
C930        C  0.43481068  0.79293668  0.67631497     0.84600
O931        O  0.42829460  0.93357291  0.71599316    -0.79500
O932        O  0.47972510  0.95482603  0.69476010    -0.89800
C933        C  0.34778474  0.87034110  0.72163011     0.84100
O934        O  0.43524127  0.97045500  0.65376046    -0.68000
O935        O  0.35159671  0.80535923  0.64356613    -0.87300
C936        C  0.40031249  0.97116773  0.65979619     0.85000
C937        C  0.45938644  0.95218734  0.71492268     1.06500
H938        H  0.36269474  0.88257127  0.65698924     0.38300
O939        O  0.38140566  0.86849121  0.66665820    -1.09900
O940        O  0.44689790  0.82063499  0.66335864    -0.66600
Ni941      Ni  0.42525189  0.86343390  0.64628080     1.26300
O942        O  0.38421147  0.94559406  0.67328576    -0.66800
O943        O  0.40064733  0.83118768  0.62220276    -0.79100
C944        C  0.48336508  0.88953818  0.61524824     0.84300
O945        O  0.46947174  0.86081500  0.62614932    -0.66300
Ni946      Ni  0.35741587  0.82319445  0.67827433     1.27400
Ni947      Ni  0.40364098  0.90134150  0.69152246     1.26100
H948        H  0.46564066  0.88020184  0.68123442     0.38900
O949        O  0.59613885  0.86630896  0.93219591    -0.81100
O950        O  0.62016449  0.75891127  0.52112341    -0.65800
O951        O  0.62543725  0.84539472  0.97912218    -1.12400
C952        C  0.70844513  0.76555127  0.93099629     1.05800
O953        O  0.68215562  0.74922542  0.52198204    -0.79000
O954        O  0.72863928  0.78985681  0.99102138    -0.66600
Ni955      Ni  0.57941283  0.86831011  0.96732207     1.34900
C956        C  0.72841779  0.82510119  0.98586315     0.84600
O957        O  0.59100419  0.82788338  0.52465368    -0.79500
O958        O  0.55980818  0.87235121  0.50195774    -0.89800
C959        C  0.64916700  0.74433422  0.53133400     0.84100
O960        O  0.54926286  0.82391945  0.96090380    -0.68000
O961        O  0.71066808  0.74456156  0.95082445    -0.87300
C962        C  0.55185115  0.79036248  0.96955066     0.85000
C963        C  0.56673535  0.85466311  0.52284252     1.06500
H964        H  0.63669322  0.76080345  0.96539231     0.38300
O965        O  0.65225791  0.77817145  0.97515421    -1.09900
O966        O  0.70218224  0.84154823  0.97305149    -0.66600
Ni967      Ni  0.65822908  0.82228686  0.95454153     1.26300
O968        O  0.57799808  0.78013911  0.98463830    -0.66800
O969        O  0.69050715  0.79717481  0.93029110    -0.79100
C970        C  0.62790266  0.87822537  0.92379612     0.84300
O971        O  0.65902384  0.86724090  0.93380176    -0.66300
Ni972      Ni  0.69484223  0.74873213  0.98576129     1.27400
Ni973      Ni  0.62174476  0.80228318  0.00030505     1.26100
H974        H  0.63927181  0.86478526  0.98834768     0.38900
O975        O  0.80362575  0.72214016  0.74816728    -0.81100
O976        O  0.82559009  0.60389511  0.83678234    -0.65800
O977        O  0.83386277  0.69210606  0.79461979    -1.12400
C978        C  0.91523052  0.61162965  0.74660937     1.05800
O979        O  0.88843990  0.60264608  0.83796014    -0.79000
O980        O  0.93547285  0.64435982  0.80832230    -0.66600
Ni981      Ni  0.79151403  0.72232071  0.78441286     1.34900
C982        C  0.93350115  0.67772293  0.79918118     0.84600
O983        O  0.79699546  0.67501785  0.84045816    -0.79500
O984        O  0.77645773  0.72694874  0.81942551    -0.89800
C985        C  0.85638856  0.59159787  0.84646138     0.84100
O986        O  0.75718933  0.68142847  0.77931404    -0.68000
O987        O  0.92280343  0.59489317  0.76774372    -0.87300
C988        C  0.75664935  0.64638223  0.78513906     0.85000
C989        C  0.77956248  0.70688103  0.83959598     1.06500
H990        H  0.84396731  0.60469215  0.78222725     0.38300
O991        O  0.85858879  0.62397244  0.79099888    -1.09900
O992        O  0.90756143  0.68786134  0.78391972    -0.66600
Ni993      Ni  0.86273040  0.66648210  0.76919425     1.26300
O994        O  0.78249256  0.62997077  0.79824586    -0.66800
O995        O  0.89172823  0.63910597  0.74472704    -0.79100
C996        C  0.83659510  0.72660740  0.73869502     0.84300
O997        O  0.86507632  0.70949446  0.74782323    -0.66300
Ni998      Ni  0.90436012  0.60019076  0.80258246     1.27400
Ni999      Ni  0.82741599  0.64851586  0.81581912     1.26100
H1000       H  0.85020717  0.70927962  0.80393343     0.38900
O1001       O  0.01041321  0.04743129  0.87233719    -0.81100
O1002       O  0.12461291  0.07055789  0.96235086    -0.65800
O1003       O  0.03677314  0.07673852  0.91988935    -1.12400
C1004       C  0.11381644  0.16440890  0.87491436     1.05800
O1005       O  0.12053935  0.13315181  0.96523887    -0.79000
O1006       O  0.07920043  0.18114243  0.93556409    -0.66600
Ni1007     Ni  0.00915665  0.03364510  0.90822455     1.34900
C1008       C  0.04615926  0.17820302  0.92607285     0.84600
O1009       O  0.05503234  0.03823689  0.96483788    -0.79500
O1010       O  0.00427809  0.01678095  0.94283835    -0.89800
C1011       C  0.13501181  0.10174040  0.97250013     0.84100
O1012       O  0.05141663  0.00099120  0.90307806    -0.68000
O1013       O  0.13039240  0.17117531  0.89625188    -0.87300
C1014       C  0.08629895  0.00145369  0.90914507     0.85000
C1015       C  0.02398679  0.01965093  0.96322395     1.06500
H1016       H  0.12333899  0.09175450  0.90842964     0.38300
O1017       O  0.10327573  0.10497661  0.91747067    -1.09900
O1018       O  0.03689328  0.15138852  0.91121859    -0.66600
Ni1019     Ni  0.06095105  0.10844018  0.89559028     1.26300
O1020       O  0.10147651  0.02767028  0.92267509    -0.66800
O1021       O  0.08687317  0.14050576  0.87233828    -0.79100
C1022       C  0.00432322  0.08054611  0.86349161     0.84300
O1023       O  0.01835969  0.10966799  0.87393651    -0.66300
Ni1024     Ni  0.12440480  0.15113432  0.93051788     1.27400
Ni1025     Ni  0.08027080  0.07111310  0.94119290     1.26100
H1026       H  0.01864386  0.09171730  0.92951816     0.38900
O1027       O  0.86194170  0.83769753  0.55758587    -0.81100
O1028       O  0.97223747  0.86162721  0.64473158    -0.65800
O1029       O  0.88448424  0.86970665  0.60362604    -1.12400
C1030       C  0.96364201  0.95000007  0.55405355     1.05800
O1031       O  0.98433455  0.92326595  0.64498998    -0.79000
O1032       O  0.93945378  0.96921940  0.61633351    -0.66600
Ni1033     Ni  0.85878110  0.82436138  0.59329468     1.34900
C1034       C  0.90499746  0.97033662  0.60925400     0.84600
O1035       O  0.90206067  0.83549788  0.64959514    -0.79500
O1036       O  0.85319328  0.80871609  0.62851971    -0.89800
C1037       C  0.98892411  0.89009057  0.65415382     0.84100
O1038       O  0.90104477  0.79006624  0.58867863    -0.68000
O1039       O  0.98284541  0.95467746  0.57448773    -0.87300
C1040       C  0.93541710  0.79234024  0.59584693     0.85000
C1041       C  0.87266069  0.81440724  0.64884021     1.06500
H1042       H  0.96979518  0.87794067  0.58937861     0.38300
O1043       O  0.95234801  0.89403340  0.59876628    -1.09900
O1044       O  0.88963492  0.94558138  0.59468002    -0.66600
Ni1045     Ni  0.90815360  0.89975412  0.57787792     1.26300
O1046       O  0.94782696  0.82007191  0.60877222    -0.66800
O1047       O  0.93390061  0.92938747  0.55258216    -0.79100
C1048       C  0.85044780  0.86921967  0.54842408     0.84300
O1049       O  0.86300640  0.90056900  0.55718354    -0.66300
Ni1050     Ni  0.98139555  0.93711706  0.60910121     1.27400
Ni1051     Ni  0.92799653  0.86485681  0.62450516     1.26100
H1052       H  0.86615362  0.88515732  0.61274899     0.38900
O1053       O  0.18032303  0.74426342  0.74939100    -0.81100
O1054       O  0.15927608  0.86619175  0.83682337    -0.65800
O1055       O  0.15146967  0.77585421  0.79608009    -1.12400
C1056       C  0.06949851  0.85386121  0.74692000     1.05800
O1057       O  0.09637988  0.86725941  0.83810921    -0.79000
O1058       O  0.04854817  0.82431716  0.80897216    -0.66600
Ni1059     Ni  0.19416642  0.74630536  0.78539804     1.34900
C1060       C  0.05085855  0.79038940  0.80064369     0.84600
O1061       O  0.18915443  0.79529105  0.84133302    -0.79500
O1062       O  0.21124337  0.74392687  0.82015387    -0.89800
C1063       C  0.12843895  0.87904616  0.84626275     0.84100
O1064       O  0.22683896  0.78783032  0.77850990    -0.68000
O1065       O  0.06227154  0.87181133  0.76773215    -0.87300
C1066       C  0.22708178  0.82294126  0.78423857     0.85000
C1067       C  0.20785502  0.76408301  0.84037908     1.06500
H1068       H  0.14044358  0.86235020  0.78215309     0.38300
O1069       O  0.12603681  0.84355452  0.79147428    -1.09900
O1070       O  0.07741042  0.77940463  0.78614667    -0.66600
Ni1071     Ni  0.12168009  0.79989342  0.77057528     1.26300
O1072       O  0.20205897  0.83902146  0.79827848    -0.66800
O1073       O  0.09210772  0.82555911  0.74564563    -0.79100
C1074       C  0.14708032  0.73972204  0.74035580     0.84300
O1075       O  0.11868479  0.75573502  0.75035446    -0.66300
Ni1076     Ni  0.08035808  0.86797927  0.80269572     1.27400
Ni1077     Ni  0.15780607  0.82050702  0.81654147     1.26100
H1078       H  0.13568985  0.75871044  0.80579100     0.38900
O1079       O  0.38939765  0.60273979  0.93180821    -0.81100
O1080       O  0.36793151  0.71011181  0.52132212    -0.65800
O1081       O  0.36137426  0.62325842  0.97915511    -1.12400
C1082       C  0.27748764  0.70314297  0.93196119     1.05800
O1083       O  0.30584935  0.71903009  0.52274768    -0.79000
O1084       O  0.25866464  0.67799228  0.99258428    -0.66600
Ni1085     Ni  0.40691163  0.60020776  0.96667514     1.34900
C1086       C  0.25890896  0.64275395  0.98723502     0.84600
O1087       O  0.39722321  0.64068331  0.52441031    -0.79500
O1088       O  0.42665914  0.59546002  0.50108444    -0.89800
C1089       C  0.33899950  0.72495445  0.53154315     0.84100
O1090       O  0.43753773  0.64439416  0.96052094    -0.68000
O1091       O  0.27515411  0.72362867  0.95211065    -0.87300
C1092       C  0.43505571  0.67807669  0.96913549     0.85000
C1093       C  0.42024673  0.61273841  0.52225617     1.06500
H1094       H  0.34968887  0.70781489  0.96575767     0.38300
O1095       O  0.33447454  0.69037215  0.97563689    -1.09900
O1096       O  0.28468222  0.62660754  0.97382534    -0.66600
Ni1097     Ni  0.32801252  0.64615603  0.95493345     1.26300
O1098       O  0.40899321  0.68852317  0.98424840    -0.66800
O1099       O  0.29525318  0.67137383  0.93096284    -0.79100
C1100       C  0.35769087  0.58975133  0.92404508     0.84300
O1101       O  0.32670680  0.60093185  0.93418103    -0.66300
Ni1102     Ni  0.29193863  0.71943381  0.98684132     1.27400
Ni1103     Ni  0.36577073  0.66645791  0.00043297     1.26100
H1104       H  0.34777910  0.60393148  0.98852286     0.38900
O1105       O  0.10146837  0.36688793  0.68337243    -0.81100
O1106       O  0.12237996  0.25963166  0.77206397    -0.65800
O1107       O  0.12895235  0.34651306  0.73064701    -1.12400
C1108       C  0.21080389  0.26611994  0.68216385     1.05800
O1109       O  0.18438005  0.24973810  0.77325411    -0.79000
O1110       O  0.23208183  0.28959207  0.74221740    -0.66600
Ni1111     Ni  0.08351456  0.36941850  0.71814218     1.34900
C1112       C  0.23229668  0.32508262  0.73773861     0.84600
O1113       O  0.09303978  0.32892586  0.77562407    -0.79500
O1114       O  0.06352759  0.37407514  0.75246374    -0.89800
C1115       C  0.15120176  0.24489564  0.78241069     0.84100
O1116       O  0.05240540  0.32535537  0.71185246    -0.68000
O1117       O  0.21234813  0.24473663  0.70186306    -0.87300
C1118       C  0.05436784  0.29175004  0.72058048     0.85000
C1119       C  0.06965905  0.35653351  0.77350109     1.06500
H1120       H  0.13972292  0.26245653  0.71629767     0.38300
O1121       O  0.15528598  0.27936080  0.72642233    -1.09900
O1122       O  0.20596979  0.34233401  0.72553193    -0.66600
Ni1123     Ni  0.16236385  0.32383578  0.70631833     1.26300
O1124       O  0.08067576  0.28113542  0.73543506    -0.66800
O1125       O  0.19490329  0.29886067  0.68203304    -0.79100
C1126       C  0.13319997  0.38002864  0.67575692     0.84300
O1127       O  0.16411407  0.36935943  0.68616060    -0.66300
Ni1128     Ni  0.19720379  0.24916544  0.73699063     1.27400
Ni1129     Ni  0.12435318  0.30318944  0.75147309     1.26100
H1130       H  0.14250473  0.36576572  0.74018456     0.38900
O1131       O  0.30518988  0.22370572  0.49797957    -0.81100
O1132       O  0.32546488  0.10398345  0.58696659    -0.65800
O1133       O  0.33349043  0.19262667  0.54492704    -1.12400
C1134       C  0.41801075  0.11361395  0.99780147     1.05800
O1135       O  0.38823320  0.10431917  0.58857029    -0.79000
O1136       O  0.43606400  0.14534671  0.55925337    -0.66600
Ni1137     Ni  0.29107412  0.22233194  0.53400863     1.34900
C1138       C  0.43391517  0.17877363  0.55029864     0.84600
O1139       O  0.29534106  0.17467058  0.59021579    -0.79500
O1140       O  0.27368225  0.22571823  0.56873758    -0.89800
C1141       C  0.35641642  0.09235199  0.59686778     0.84100
O1142       O  0.25837666  0.18064498  0.52745790    -0.68000
O1143       O  0.42437245  0.09616604  0.51884993    -0.87300
C1144       C  0.25791307  0.14577905  0.53371099     0.85000
C1145       C  0.27668221  0.20581653  0.58901670     1.06500
H1146       H  0.34510037  0.10550989  0.53235711     0.38300
O1147       O  0.35927702  0.12481958  0.54143585    -1.09900
O1148       O  0.40759633  0.18916786  0.53545116    -0.66600
Ni1149     Ni  0.36371677  0.16751207  0.51991993     1.26300
O1150       O  0.28289225  0.12989857  0.54782548    -0.66800
O1151       O  0.39435700  0.14099438  0.99575689    -0.79100
C1152       C  0.33853657  0.22706285  0.98882019     0.84300
O1153       O  0.36655671  0.21057684  0.49893493    -0.66300
Ni1154     Ni  0.40493970  0.10134574  0.55343925     1.27400
Ni1155     Ni  0.32704159  0.14880307  0.56598326     1.26100
H1156       H  0.34924100  0.21003422  0.55451918     0.38900
O1157       O  0.51051789  0.54392519  0.62277394    -0.81100
O1158       O  0.62654947  0.56878908  0.71176567    -0.65800
O1159       O  0.53797010  0.57464402  0.66965297    -1.12400
C1160       C  0.61387042  0.66034026  0.62272955     1.05800
O1161       O  0.62372086  0.63160498  0.71352414    -0.79000
O1162       O  0.58085917  0.67809926  0.68432277    -0.66600
Ni1163     Ni  0.50935618  0.53180784  0.65895077     1.34900
C1164       C  0.54773044  0.67515130  0.67497581     0.84600
O1165       O  0.55679722  0.53692672  0.71485258    -0.79500
O1166       O  0.50472395  0.51666653  0.69389424    -0.89800
C1167       C  0.63689272  0.60014617  0.72177019     0.84100
O1168       O  0.55091364  0.49820750  0.65444255    -0.68000
O1169       O  0.63062151  0.66784938  0.64389916    -0.87300
C1170       C  0.58591411  0.49814813  0.66023534     0.85000
C1171       C  0.52521032  0.51913740  0.71395207     1.06500
H1172       H  0.62452853  0.58826312  0.65727148     0.38300
O1173       O  0.60467572  0.60191693  0.66624088    -1.09900
O1174       O  0.53878380  0.64879322  0.65967709    -0.66600
Ni1175     Ni  0.56189674  0.60503344  0.64455622     1.26300
O1176       O  0.60208032  0.52484066  0.67275381    -0.66800
O1177       O  0.58758670  0.63574862  0.62052142    -0.79100
C1178       C  0.50417512  0.57670835  0.61349583     0.84300
O1179       O  0.51863319  0.60614788  0.62323232    -0.66300
Ni1180     Ni  0.62609977  0.64842905  0.67846001     1.27400
Ni1181     Ni  0.58184056  0.56910583  0.69069891     1.26100
H1182       H  0.52029453  0.59022402  0.67922346     0.38900
O1183       O  0.36957450  0.33828754  0.80691541    -0.81100
O1184       O  0.47381288  0.36331852  0.89691172    -0.65800
O1185       O  0.38846652  0.36813298  0.85394906    -1.12400
C1186       C  0.46862309  0.45085529  0.80685814     1.05800
O1187       O  0.48312224  0.42531576  0.89842881    -0.79000
O1188       O  0.44117302  0.47100363  0.86742664    -0.66600
Ni1189     Ni  0.36566294  0.32229265  0.84200679     1.34900
C1190       C  0.40627571  0.47019206  0.86131306     0.84600
O1191       O  0.40517379  0.33349838  0.89964276    -0.79500
O1192       O  0.35979269  0.30399085  0.87665992    -0.89800
C1193       C  0.48678269  0.39229930  0.90812375     0.84100
O1194       O  0.40998244  0.29120662  0.83690769    -0.68000
O1195       O  0.48810311  0.45437473  0.82731170    -0.87300
C1196       C  0.44365012  0.29414426  0.84530139     0.85000
C1197       C  0.37748862  0.31040508  0.89761430     1.06500
H1198       H  0.47348144  0.37976842  0.84150842     0.38300
O1199       O  0.45545701  0.39515800  0.85093108    -1.09900
O1200       O  0.39137817  0.44431950  0.84745366    -0.66600
Ni1201     Ni  0.41192889  0.40049524  0.82952994     1.26300
O1202       O  0.45384564  0.32085253  0.86000817    -0.66800
O1203       O  0.43750906  0.43234252  0.80554029    -0.79100
C1204       C  0.35647707  0.36965353  0.79855292     0.84300
O1205       O  0.36745757  0.40103529  0.80818908    -0.66300
Ni1206     Ni  0.48355098  0.43830972  0.86219306     1.27400
Ni1207     Ni  0.43103230  0.36452823  0.87563419     1.26100
H1208       H  0.36891258  0.38219949  0.86295890     0.38900
O1209       O  0.89251861  0.10344074  0.68107766    -0.81100
O1210       O  0.86436055  0.20939100  0.77092437    -0.65800
O1211       O  0.86188540  0.12345308  0.72799225    -1.12400
C1212       C  0.77785644  0.20212057  0.68029460     1.05800
O1213       O  0.80210694  0.21675951  0.77169809    -0.79000
O1214       O  0.75744416  0.17443743  0.74066740    -0.66600
Ni1215     Ni  0.90848816  0.10143677  0.71642323     1.34900
C1216       C  0.75913951  0.13943415  0.73476493     0.84600
O1217       O  0.89482596  0.14093681  0.77402723    -0.79500
O1218       O  0.92695110  0.09699587  0.75124792    -0.89800
C1219       C  0.83485368  0.22355672  0.78081822     0.84100
O1220       O  0.93843052  0.14647063  0.71116852    -0.68000
O1221       O  0.77370373  0.22151792  0.70076093    -0.87300
C1222       C  0.93525887  0.17990586  0.72020480     0.85000
C1223       C  0.91921641  0.11427616  0.77222855     1.06500
H1224       H  0.84859923  0.20829922  0.71538519     0.38300
O1225       O  0.83346805  0.19007894  0.72466963    -1.09900
O1226       O  0.78558959  0.12489275  0.72114507    -0.66600
Ni1227     Ni  0.82914693  0.14624502  0.70338762     1.26300
O1228       O  0.90808800  0.18963848  0.73472381    -0.66800
O1229       O  0.79704697  0.17124849  0.67901309    -0.79100
C1230       C  0.86099621  0.09092207  0.67253251     0.84300
O1231       O  0.82964078  0.10171456  0.68224471    -0.66300
Ni1232     Ni  0.78939847  0.21721265  0.73562257     1.27400
Ni1233     Ni  0.86421561  0.16629243  0.74968271     1.26100
H1234       H  0.84824999  0.10365465  0.73691738     0.38900
O1235       O  0.68023795  0.25004215  0.49700781    -0.81100
O1236       O  0.66019862  0.36354610  0.58963292    -0.65800
O1237       O  0.65304698  0.27753921  0.54504322    -1.12400
C1238       C  0.56676568  0.35900892  0.00153545     1.05800
O1239       O  0.59771053  0.36093349  0.59144777    -0.79000
O1240       O  0.54847479  0.32503001  0.56004181    -0.66600
Ni1241     Ni  0.69579213  0.24963507  0.53274422     1.34900
C1242       C  0.55125878  0.29132951  0.55147856     0.84600
O1243       O  0.69105207  0.29335974  0.59045076    -0.79500
O1244       O  0.71449897  0.24474085  0.56715274    -0.89800
C1245       C  0.62904719  0.37377633  0.59991358     0.84100
O1246       O  0.72723510  0.29248154  0.52678205    -0.68000
O1247       O  0.56246507  0.37740007  0.52249698    -0.87300
C1248       C  0.72737732  0.32684685  0.53433231     0.85000
C1249       C  0.71069101  0.26298943  0.58815533     1.06500
H1250       H  0.64026959  0.36465952  0.53486949     0.38300
O1251       O  0.62626760  0.34508336  0.54370216    -1.09900
O1252       O  0.57856844  0.28044803  0.53754074    -0.66600
Ni1253     Ni  0.62134619  0.30333079  0.52137107     1.26300
O1254       O  0.70277375  0.34104768  0.54958173    -0.66800
O1255       O  0.58896497  0.33051234  0.99882589    -0.79100
C1256       C  0.64677301  0.24655232  0.98799178     0.84300
O1257       O  0.61853804  0.26126396  0.49915635    -0.66300
Ni1258     Ni  0.58117797  0.36840621  0.55672521     1.27400
Ni1259     Ni  0.65906773  0.32017522  0.56728132     1.26100
H1260       H  0.63806722  0.25917190  0.55430701     0.38900
O1261       O  0.12375784  0.62893929  0.55796835    -0.81100
O1262       O  0.01400855  0.60248854  0.64545842    -0.65800
O1263       O  0.10184825  0.59848129  0.60438060    -1.12400
C1264       C  0.02539542  0.51476303  0.55499819     1.05800
O1265       O  0.00541895  0.54034437  0.64624843    -0.79000
O1266       O  0.05037804  0.49547945  0.61649305    -0.66600
Ni1267     Ni  0.12471825  0.64469662  0.59333129     1.34900
C1268       C  0.08544181  0.49656599  0.61087691     0.84600
O1269       O  0.08246755  0.63237072  0.65013014    -0.79500
O1270       O  0.12807043  0.66289373  0.62820179    -0.89800
C1271       C  0.99925067  0.57340466  0.65534794     0.84100
O1272       O  0.08023968  0.67527186  0.58743109    -0.68000
O1273       O  0.00558223  0.51073963  0.57523762    -0.87300
C1274       C  0.04642755  0.67243911  0.59562204     0.85000
C1275       C  0.10985553  0.65589199  0.64884146     1.06500
H1276       H  0.01759688  0.58604862  0.58994009     0.38300
O1277       O  0.03538680  0.57081736  0.59961309    -1.09900
O1278       O  0.10046416  0.52235911  0.59713810    -0.66600
Ni1279     Ni  0.08012945  0.56603101  0.57911350     1.26300
O1280       O  0.03568088  0.64527263  0.60962691    -0.66800
O1281       O  0.05613031  0.53397909  0.55411042    -0.79100
C1282       C  0.13709321  0.59751846  0.54965146     0.84300
O1283       O  0.12575204  0.56609478  0.55888493    -0.66300
Ni1284     Ni  0.00765237  0.52710407  0.61010443     1.27400
Ni1285     Ni  0.05810192  0.60150587  0.62519286     1.26100
H1286       H  0.12111813  0.58457890  0.61374002     0.38900
O1287       O  0.97266067  0.42559117  0.87120468    -0.81100
O1288       O  0.85897947  0.40258830  0.96139434    -0.65800
O1289       O  0.94604675  0.39427010  0.91806445    -1.12400
C1290       C  0.86644050  0.31292458  0.87047947     1.05800
O1291       O  0.85610357  0.33960979  0.96180921    -0.79000
O1292       O  0.89861044  0.29297335  0.93216060    -0.66600
Ni1293     Ni  0.97546147  0.43683720  0.90751675     1.34900
C1294       C  0.93150535  0.29444990  0.92231019     0.84600
O1295       O  0.93044859  0.43114883  0.96412729    -0.79500
O1296       O  0.98216760  0.45083640  0.94258038    -0.89800
C1297       C  0.84567851  0.37187915  0.97051820     0.84100
O1298       O  0.93458512  0.47184402  0.90402095    -0.68000
O1299       O  0.84995968  0.30508730  0.89162772    -0.87300
C1300       C  0.89961045  0.47188843  0.90993219     0.85000
C1301       C  0.96257836  0.44798107  0.96300669     1.06500
H1302       H  0.85856658  0.38460246  0.90665672     0.38300
O1303       O  0.87798590  0.36976129  0.91511366    -1.09900
O1304       O  0.94129184  0.32032507  0.90688737    -0.66600
Ni1305     Ni  0.92003077  0.36582495  0.89278866     1.26300
O1306       O  0.88371192  0.44557576  0.92274004    -0.66800
O1307       O  0.89261401  0.33751030  0.86834960    -0.79100
C1308       C  0.97824036  0.39276616  0.86164459     0.84300
O1309       O  0.96261256  0.36371496  0.87096782    -0.66300
Ni1310     Ni  0.85434268  0.32385133  0.92640722     1.27400
Ni1311     Ni  0.90311017  0.40067024  0.93985337     1.26100
H1312       H  0.96356912  0.37773294  0.92695401     0.38900
C1313       C  0.01585483  0.47965272  0.98648852    -0.21500
C1314       C  0.97865218  0.46489715  0.98659634    -0.09500
C1315       C  0.95763696  0.46616881  0.50943325     0.29300
C1316       C  0.97348917  0.48181102  0.53145395    -0.21500
C1317       C  0.01053713  0.49680744  0.53138167    -0.09500
C1318       C  0.03167741  0.49554732  0.50856215     0.29300
F1319       F  0.06754765  0.50953663  0.00744593    -0.20100
H1320       H  0.03293363  0.47892575  0.96926164     0.17700
H1321       H  0.95620549  0.48262660  0.54858313     0.17700
F1322       F  0.92154029  0.45279730  0.51059904    -0.20100
C1323       C  0.75164683  0.37598932  0.00437779    -0.21500
C1324       C  0.75854767  0.35028763  0.52436250    -0.09500
C1325       C  0.79602992  0.33887838  0.52951960     0.29300
C1326       C  0.82550390  0.34954361  0.51320130    -0.21500
C1327       C  0.81813134  0.37220389  0.99173417    -0.09500
C1328       C  0.78137675  0.38708783  0.98813680     0.29300
F1329       F  0.77332487  0.40833809  0.96718341    -0.20100
H1330       H  0.72279581  0.38437814  0.99980383     0.17700
H1331       H  0.85358954  0.33763164  0.51616635     0.17700
F1332       F  0.80340054  0.31414738  0.54880563    -0.20100
C1333       C  0.82129174  0.27259348  0.84493360    -0.21500
C1334       C  0.85620178  0.29175145  0.84709707    -0.09500
C1335       C  0.88242431  0.28956613  0.82678137     0.29300
C1336       C  0.87431454  0.26799756  0.80530365    -0.21500
C1337       C  0.83998355  0.24821095  0.80325231    -0.09500
C1338       C  0.81298754  0.25115756  0.82297841     0.29300
F1339       F  0.77949414  0.23226009  0.82150880    -0.20100
H1340       H  0.80063346  0.27399854  0.86026257     0.17700
H1341       H  0.89541351  0.26644088  0.79022645     0.17700
F1342       F  0.91676469  0.30703162  0.82788137    -0.20100
C1343       C  0.71853611  0.26227914  0.63542412    -0.21500
C1344       C  0.72894997  0.24757219  0.61141506    -0.09500
C1345       C  0.75529023  0.21731273  0.61027336     0.29300
C1346       C  0.77062068  0.20231123  0.63273726    -0.21500
C1347       C  0.76009324  0.21705564  0.65673143    -0.09500
C1348       C  0.73374634  0.24731249  0.65780961     0.29300
F1349       F  0.72218622  0.26242540  0.68045357    -0.20100
H1350       H  0.69804622  0.28523042  0.63702451     0.17700
H1351       H  0.79113352  0.17936352  0.63127702     0.17700
F1352       F  0.76656343  0.20228385  0.58755086    -0.20100
C1353       C  0.51268859  0.34825918  0.94041081    -0.21500
C1354       C  0.50584290  0.38605049  0.93300037    -0.09500
C1355       C  0.51704496  0.41578357  0.94951761     0.29300
C1356       C  0.53603554  0.40735397  0.97250293    -0.21500
C1357       C  0.54401505  0.36935993  0.97900563    -0.09500
C1358       C  0.53116051  0.33998834  0.96304470     0.29300
F1359       F  0.53625436  0.30288546  0.96940199    -0.20100
H1360       H  0.50404571  0.32452490  0.92852568     0.17700
H1361       H  0.54532615  0.43035552  0.98480965     0.17700
F1362       F  0.50980685  0.45264627  0.94353747    -0.20100
C1363       C  0.64910349  0.43498588  0.62029502    -0.21500
C1364       C  0.62770059  0.40128864  0.62125266    -0.09500
C1365       C  0.59901852  0.39781905  0.63976952     0.29300
C1366       C  0.58918955  0.42884364  0.65499460    -0.21500
C1367       C  0.60709807  0.46412185  0.65174960    -0.09500
C1368       C  0.63867206  0.46654378  0.63537183     0.29300
F1369       F  0.65636850  0.50031424  0.63168571    -0.20100
H1370       H  0.67120976  0.43820179  0.60605980     0.17700
H1371       H  0.56493372  0.42635423  0.66765557     0.17700
F1372       F  0.57807445  0.36553569  0.64151777    -0.20100
C1373       C  0.46204662  0.46646436  0.76059143    -0.21500
C1374       C  0.48330182  0.46868763  0.78325840    -0.09500
C1375       C  0.51889936  0.48701586  0.78276099     0.29300
C1376       C  0.53246371  0.50285093  0.76013068    -0.21500
C1377       C  0.51103698  0.50087203  0.73752154    -0.09500
C1378       C  0.47559667  0.48225648  0.73798392     0.29300
F1379       F  0.45364321  0.47935724  0.71672167    -0.20100
H1380       H  0.43470172  0.45242605  0.76025060     0.17700
H1381       H  0.55982271  0.51686700  0.76042191     0.17700
F1382       F  0.54090957  0.48963979  0.80400719    -0.20100
C1383       C  0.53038314  0.22432865  0.55815607    -0.21500
C1384       C  0.52103884  0.26323236  0.55665563    -0.09500
C1385       C  0.48257297  0.27399950  0.55640873     0.29300
C1386       C  0.45424003  0.24618617  0.55598246    -0.21500
C1387       C  0.46364465  0.20720707  0.55610570    -0.09500
C1388       C  0.50201986  0.19651510  0.55806680     0.29300
F1389       F  0.51232821  0.15927101  0.55766765    -0.20100
H1390       H  0.55986791  0.21536953  0.55824495     0.17700
H1391       H  0.42484879  0.25513518  0.55436809     0.17700
F1392       F  0.47238916  0.31114987  0.55432451    -0.20100
C1393       C  0.32872142  0.27709757  0.92462214    -0.21500
C1394       C  0.36625174  0.28968218  0.92093422    -0.09500
C1395       C  0.39353528  0.28234965  0.93993527     0.29300
C1396       C  0.38357459  0.26280519  0.96192551    -0.21500
C1397       C  0.34627719  0.24988973  0.96572958    -0.09500
C1398       C  0.31862933  0.25753571  0.94698717     0.29300
F1399       F  0.28238457  0.24522988  0.94987354    -0.20100
H1400       H  0.30722939  0.28254361  0.91025915     0.17700
H1401       H  0.40551462  0.25747780  0.97601946     0.17700
F1402       F  0.43035127  0.29294412  0.93699918    -0.20100
C1403       C  0.98573953  0.27512122  0.71501954    -0.21500
C1404       C  0.02399946  0.26373156  0.71473931    -0.09500
C1405       C  0.03249104  0.22459852  0.71265869     0.29300
C1406       C  0.00331932  0.19749448  0.71248708    -0.21500
C1407       C  0.96514917  0.20873726  0.71493617    -0.09500
C1408       C  0.95658358  0.24800015  0.71538920     0.29300
F1409       F  0.92003706  0.26020648  0.71714864    -0.20100
H1410       H  0.97842127  0.30498725  0.71668578     0.17700
H1411       H  0.01078069  0.16757515  0.71206120     0.17700
F1412       F  0.06912617  0.21245163  0.71176854    -0.20100
C1413       C  0.30164969  0.32938547  0.74360549    -0.21500
C1414       C  0.26573224  0.34587269  0.74750023    -0.09500
C1415       C  0.26218295  0.37647449  0.76475994     0.29300
C1416       C  0.29348299  0.38752353  0.77975837    -0.21500
C1417       C  0.32828989  0.36798378  0.77767294    -0.09500
C1418       C  0.33264053  0.34027476  0.75846720     0.29300
F1419       F  0.36617189  0.32153685  0.75547742    -0.20100
H1420       H  0.30503921  0.30593058  0.73028121     0.17700
H1421       H  0.28950963  0.40874158  0.79459762     0.17700
F1422       F  0.22776140  0.39272639  0.76913843    -0.20100
C1423       C  0.24749817  0.25913265  0.61396175    -0.21500
C1424       C  0.25839280  0.22061741  0.61253493    -0.09500
C1425       C  0.25304674  0.19734291  0.63405029     0.29300
C1426       C  0.23792461  0.21257199  0.65652062    -0.21500
C1427       C  0.22758834  0.25122266  0.65813452    -0.09500
C1428       C  0.23231840  0.27439010  0.63645540     0.29300
F1429       F  0.22289423  0.31187610  0.63695724    -0.20100
H1430       H  0.25139454  0.27783454  0.59775546     0.17700
H1431       H  0.23403614  0.19376794  0.67267054     0.17700
F1432       F  0.26202880  0.15975715  0.63342897    -0.20100
C1433       C  0.02442697  0.40054352  0.79642525    -0.21500
C1434       C  0.04819703  0.36815791  0.79666446    -0.09500
C1435       C  0.05027847  0.34617993  0.81914944     0.29300
C1436       C  0.02806009  0.35550672  0.84021607    -0.21500
C1437       C  0.00368292  0.38703611  0.83971922    -0.09500
C1438       C  0.00244170  0.41012145  0.81788446     0.29300
F1439       F  0.97866067  0.44055261  0.81680271    -0.20100
H1440       H  0.02232267  0.41809658  0.77949810     0.17700
H1441       H  0.02952587  0.33756320  0.85701528     0.17700
F1442       F  0.07286393  0.31487948  0.82077418    -0.20100
C1443       C  0.14855469  0.44318177  0.65635792    -0.21500
C1444       C  0.13245905  0.40675740  0.65411112    -0.09500
C1445       C  0.10781064  0.39907189  0.63364283     0.29300
C1446       C  0.09612202  0.42822332  0.61746895    -0.21500
C1447       C  0.10876488  0.46553578  0.62137323    -0.09500
C1448       C  0.13668279  0.47263498  0.64002361     0.29300
F1449       F  0.14893114  0.50865806  0.64439297    -0.20100
H1450       H  0.16724527  0.44973008  0.67221866     0.17700
H1451       H  0.07452072  0.42231178  0.60324251     0.17700
F1452       F  0.09215570  0.36405098  0.63082893    -0.20100
C1453       C  0.20109814  0.58135687  0.53149474    -0.21500
C1454       C  0.16539096  0.59902571  0.52881794    -0.09500
C1455       C  0.15971520  0.62479242  0.00870336     0.29300
C1456       C  0.19000531  0.63546265  0.99316482    -0.21500
C1457       C  0.22660273  0.62091089  0.49742090    -0.09500
C1458       C  0.23175655  0.59239459  0.51593267     0.29300
F1459       F  0.26701316  0.57848928  0.52087978    -0.20100
H1460       H  0.20613562  0.56179294  0.54710539     0.17700
H1461       H  0.18553445  0.65757497  0.97906995     0.17700
F1462       F  0.12547590  0.64199484  0.00539379    -0.20100
C1463       C  0.43178669  0.61852106  0.56911859    -0.21500
C1464       C  0.44031743  0.60030246  0.54579189    -0.09500
C1465       C  0.46813429  0.57122430  0.54558594     0.29300
C1466       C  0.48774693  0.56193166  0.56807294    -0.21500
C1467       C  0.48011281  0.58162470  0.59085354    -0.09500
C1468       C  0.45148989  0.60942572  0.59133559     0.29300
F1469       F  0.44282614  0.62811358  0.61337015    -0.20100
H1470       H  0.41020229  0.64050322  0.57021937     0.17700
H1471       H  0.50997403  0.54055371  0.56745998     0.17700
F1472       F  0.47720527  0.55248616  0.52367908    -0.20100
C1473       C  0.34335138  0.52538510  0.90615503    -0.21500
C1474       C  0.35855147  0.56198015  0.90286420    -0.09500
C1475       C  0.38275431  0.56883317  0.88203303     0.29300
C1476       C  0.39481321  0.53885341  0.86649071    -0.21500
C1477       C  0.38289584  0.50158771  0.87137869    -0.09500
C1478       C  0.35557440  0.49515073  0.89049373     0.29300
F1479       F  0.34429649  0.45918408  0.89595845    -0.20100
H1480       H  0.32514713  0.51945383  0.92235546     0.17700
H1481       H  0.41603960  0.54423225  0.85193690     0.17700
F1482       F  0.39754267  0.60398610  0.87820498    -0.20100
C1483       C  0.15540086  0.69578467  0.67430815    -0.21500
C1484       C  0.12065076  0.67615685  0.67261862    -0.09500
C1485       C  0.09603828  0.67642589  0.69389529     0.29300
C1486       C  0.10578187  0.69631590  0.71593776    -0.21500
C1487       C  0.14017439  0.71620515  0.71752589    -0.09500
C1488       C  0.16524736  0.71553721  0.69665476     0.29300
F1489       F  0.19826265  0.73533822  0.69740232    -0.20100
H1490       H  0.17486758  0.69608309  0.65827153     0.17700
H1491       H  0.08599857  0.69654930  0.73183040     0.17700
F1492       F  0.06193165  0.65846764  0.69333601    -0.20100
C1493       C  0.23395404  0.74907394  0.91012514    -0.21500
C1494       C  0.25911062  0.71792558  0.90849273    -0.09500
C1495       C  0.26766440  0.70268842  0.88424828     0.29300
C1496       C  0.25135235  0.71831521  0.86232795    -0.21500
C1497       C  0.22616826  0.74944721  0.86393538    -0.09500
C1498       C  0.21764704  0.76473099  0.88818481     0.29300
F1499       F  0.19311762  0.79436313  0.89088871    -0.20100
H1500       H  0.22673465  0.76146361  0.92849278     0.17700
H1501       H  0.25863008  0.70589566  0.84398100     0.17700
F1502       F  0.29235742  0.67319349  0.88151805    -0.20100
C1503       C  0.00191836  0.76990867  0.58917120    -0.21500
C1504       C  0.96288661  0.76135477  0.59013888    -0.09500
C1505       C  0.95166925  0.72301506  0.58931981     0.29300
C1506       C  0.97915976  0.69404418  0.58947586    -0.21500
C1507       C  0.01821282  0.70273083  0.59008933    -0.09500
C1508       C  0.02931878  0.74103787  0.58908516     0.29300
F1509       F  0.06655963  0.75077539  0.59036173    -0.20100
H1510       H  0.01136217  0.79920721  0.58977769     0.17700
H1511       H  0.96988157  0.66471255  0.59028732     0.17700
F1512       F  0.91437803  0.71344985  0.59050095    -0.20100
C1513       C  0.89808262  0.03936618  0.61501345    -0.21500
C1514       C  0.88300188  0.00295640  0.61889344    -0.09500
C1515       C  0.85418248  0.99797265  0.63715836     0.29300
C1516       C  0.84359955  0.02841756  0.65312233    -0.21500
C1517       C  0.86207534  0.06367444  0.65108162    -0.09500
C1518       C  0.88784698  0.06950454  0.63099025     0.29300
F1519       F  0.90550743  0.10352638  0.62818570    -0.20100
H1520       H  0.92043199  0.04361519  0.60105581     0.17700
H1521       H  0.82388154  0.02337514  0.66864522     0.17700
F1522       F  0.83974515  0.96285544  0.64161579    -0.20100
C1523       C  0.05308021  0.84138090  0.70133506    -0.21500
C1524       C  0.05071317  0.86559032  0.72277404    -0.09500
C1525       C  0.03047000  0.90013327  0.72052678     0.29300
C1526       C  0.01178148  0.90916655  0.69764279    -0.21500
C1527       C  0.01273911  0.88381476  0.67687741    -0.09500
C1528       C  0.03433787  0.85028267  0.67870426     0.29300
F1529       F  0.03714918  0.82589344  0.65857212    -0.20100
H1530       H  0.06885731  0.81489362  0.70213797     0.17700
H1531       H  0.99536536  0.93522619  0.69648494     0.17700
F1532       F  0.02838081  0.92500202  0.74038065    -0.20100
C1533       C  0.97848757  0.19830973  0.93216209    -0.21500
C1534       C  0.01722116  0.20806534  0.93082859    -0.09500
C1535       C  0.02720422  0.24665908  0.92967408     0.29300
C1536       C  0.99896466  0.27463873  0.92817842    -0.21500
C1537       C  0.96023406  0.26485713  0.92826159    -0.09500
C1538       C  0.95016404  0.22642981  0.93118969     0.29300
F1539       F  0.91312953  0.21575254  0.93107822    -0.20100
H1540       H  0.97013802  0.16868653  0.93284868     0.17700
H1541       H  0.00743994  0.30404890  0.92594734     0.17700
F1542       F  0.06415271  0.25716704  0.92766846    -0.20100
C1543       C  0.96068493  0.12072223  0.83863720    -0.21500
C1544       C  0.98086960  0.08644891  0.84058820    -0.09500
C1545       C  0.97965605  0.06019790  0.82028212     0.29300
C1546       C  0.95945296  0.06908743  0.79794905    -0.21500
C1547       C  0.93979044  0.10390022  0.79587818    -0.09500
C1548       C  0.94029592  0.12942707  0.81673505     0.29300
F1549       F  0.92211434  0.16355328  0.81587497    -0.20100
H1550       H  0.96096587  0.14125046  0.85415401     0.17700
H1551       H  0.95933770  0.04887838  0.78227259     0.17700
F1552       F  0.99910701  0.02685684  0.82160267    -0.20100
C1553       C  0.10391319  0.90186209  0.88800969    -0.21500
C1554       C  0.12848156  0.90737251  0.86726211    -0.09500
C1555       C  0.14648874  0.94286411  0.86449065     0.29300
C1556       C  0.13634228  0.97353267  0.88052633    -0.21500
C1557       C  0.10867206  0.96872511  0.89961419    -0.09500
C1558       C  0.09440476  0.93206296  0.90420468     0.38900
F1559       F  0.06804007  0.92644292  0.92277139    -0.20100
H1560       H  0.08991598  0.87473035  0.89058078     0.17700
H1561       H  0.14724301  0.00164439  0.87642816     0.17700
F1562       F  0.17033825  0.94905661  0.84454790    -0.20100
C1563       C  0.01618448  0.01749531  0.51044036    -0.21500
C1564       C  0.00911380  0.00125451  0.98638781    -0.09500
C1565       C  0.98598607  0.96875489  0.98465313     0.29300
C1566       C  0.97037726  0.95284439  0.00667753    -0.21500
C1567       C  0.97769600  0.96887815  0.53077351    -0.09500
C1568       C  0.00052086  0.00166651  0.53245416     0.29300
F1569       F  0.00723075  0.01885966  0.55529879    -0.20100
H1570       H  0.03325789  0.04297021  0.51216450     0.17700
H1571       H  0.95332105  0.92737140  0.00492728     0.17700
F1572       F  0.97922505  0.95176808  0.96175390    -0.20100
C1573       C  0.10161921  0.18303220  0.83004860    -0.21500
C1574       C  0.12548491  0.18503486  0.85153439    -0.09500
C1575       C  0.15958376  0.20592493  0.84977205     0.29300
C1576       C  0.16920217  0.22423183  0.82681286    -0.21500
C1577       C  0.14465657  0.22241669  0.80567165    -0.09500
C1578       C  0.11095310  0.20135195  0.80750564     0.29300
F1579       F  0.08673550  0.19843298  0.78736635    -0.20100
H1580       H  0.07514136  0.16743059  0.83061023     0.17700
H1581       H  0.19507414  0.24076058  0.82580926     0.17700
F1582       F  0.18348081  0.20876648  0.87005114    -0.20100
C1583       C  0.15841529  0.12569136  0.51409700    -0.21500
C1584       C  0.16436371  0.10277018  0.99247572    -0.09500
C1585       C  0.20077169  0.08771888  0.98773381     0.29300
C1586       C  0.23142496  0.09826900  0.00332853    -0.21500
C1587       C  0.22582715  0.12379315  0.52367739    -0.09500
C1588       C  0.18886547  0.13604719  0.52965772     0.29300
F1589       F  0.18288240  0.16099793  0.54914307    -0.20100
H1590       H  0.13059621  0.13775100  0.51788872     0.17700
H1591       H  0.25991084  0.08947840  0.99806208     0.17700
F1592       F  0.20750145  0.06676615  0.96634310    -0.20100
C1593       C  0.00137756  0.69529684  0.80650801    -0.21500
C1594       C  0.96310758  0.70625121  0.80536279    -0.09500
C1595       C  0.95393820  0.74532771  0.80687656     0.29300
C1596       C  0.98268755  0.77284384  0.80770532    -0.21500
C1597       C  0.02102383  0.76194184  0.80652795    -0.09500
C1598       C  0.03009764  0.72275875  0.80686350     0.29300
F1599       F  0.06685518  0.71093489  0.80624113    -0.20100
H1600       H  0.00917238  0.66549599  0.80537118     0.17700
H1601       H  0.97490918  0.80268360  0.80743572     0.17700
F1602       F  0.91713288  0.75699244  0.80649919    -0.20100
C1603       C  0.72889124  0.59408803  0.75853170    -0.21500
C1604       C  0.72377685  0.62478369  0.77548531    -0.09500
C1605       C  0.68737864  0.64074626  0.77833917     0.29300
C1606       C  0.65778253  0.62930597  0.76241896    -0.21500
C1607       C  0.66384276  0.60171614  0.74339312    -0.09500
C1608       C  0.69897683  0.58249308  0.74249423     0.29300
F1609       F  0.70577041  0.55589410  0.72417366    -0.20100
H1610       H  0.75685310  0.58170519  0.75591625     0.17700
H1611       H  0.63084400  0.64423692  0.76358788     0.17700
F1612       F  0.68142387  0.67001340  0.79490406    -0.20100
C1613       C  0.87904497  0.76845126  0.71397621    -0.21500
C1614       C  0.84311676  0.75172410  0.71655399    -0.09500
C1615       C  0.81559953  0.75805600  0.69753325     0.29300
C1616       C  0.82494332  0.77911097  0.67565188    -0.21500
C1617       C  0.86152503  0.79470921  0.67272759    -0.09500
C1618       C  0.88819481  0.78982160  0.69254295     0.29300
F1619       F  0.92385341  0.80425495  0.69090917    -0.20100
H1620       H  0.90057155  0.76451972  0.72855994     0.17700
H1621       H  0.80373579  0.78277353  0.66085033     0.17700
F1622       F  0.78043594  0.74261036  0.69950723    -0.20100
C1623       C  0.95367128  0.56414779  0.72097765    -0.21500
C1624       C  0.93495650  0.59958268  0.72285476    -0.09500
C1625       C  0.93562722  0.62421999  0.70165162     0.29300
C1626       C  0.95534757  0.61421678  0.67967694    -0.21500
C1627       C  0.97501384  0.57958388  0.67797901    -0.09500
C1628       C  0.97341936  0.55401661  0.69858011     0.29300
F1629       F  0.99229088  0.52030658  0.69755766    -0.20100
H1630       H  0.95336711  0.54452395  0.73690103     0.17700
H1631       H  0.95590755  0.63427560  0.66397789     0.17700
F1632       F  0.91852907  0.65890898  0.70229180    -0.20100
C1633       C  0.88148687  0.57094418  0.88837794    -0.21500
C1634       C  0.85637638  0.56460054  0.86799963    -0.09500
C1635       C  0.83822938  0.52911333  0.86587645     0.29300
C1636       C  0.84893158  0.49906724  0.88204270    -0.21500
C1637       C  0.87738280  0.50452095  0.90051859    -0.09500
C1638       C  0.89164407  0.54127991  0.90468535     0.29300
F1639       F  0.91834181  0.54750579  0.92295995    -0.20100
H1640       H  0.89548278  0.59819067  0.89045983     0.17700
H1641       H  0.83790423  0.47082121  0.87841324     0.17700
F1642       F  0.81383030  0.52220449  0.84632007    -0.20100
C1643       C  0.48417490  0.77294059  0.96179872    -0.21500
C1644       C  0.52243205  0.76188198  0.96319519    -0.09500
C1645       C  0.53158355  0.72281695  0.96215703     0.29300
C1646       C  0.50281226  0.69543332  0.96165302    -0.21500
C1647       C  0.46452963  0.70648410  0.96282785    -0.09500
C1648       C  0.45540141  0.74556513  0.96192885     0.29300
F1649       F  0.41863648  0.75736146  0.96252967    -0.20100
H1650       H  0.47643321  0.80278099  0.96255168     0.17700
H1651       H  0.51054177  0.66559444  0.96232862     0.17700
F1652       F  0.56834563  0.71104950  0.96293267    -0.20100
C1653       C  0.60916457  0.70086086  0.55606835    -0.21500
C1654       C  0.64306274  0.72142339  0.55443072    -0.09500
C1655       C  0.66822246  0.72154835  0.57530234     0.29300
C1656       C  0.65883092  0.70172018  0.59769552    -0.21500
C1657       C  0.62454771  0.68126292  0.59929150    -0.09500
C1658       C  0.59990969  0.68100778  0.57803560     0.29300
F1659       F  0.56614056  0.66242822  0.57848733    -0.20100
H1660       H  0.58933673  0.70041230  0.54020656     0.17700
H1661       H  0.67825828  0.70244014  0.61374786     0.17700
F1662       F  0.70087329  0.74193910  0.57444610    -0.20100
C1663       C  0.79758985  0.83206201  0.99144448    -0.21500
C1664       C  0.76101585  0.84669094  0.49593090    -0.09500
C1665       C  0.75600455  0.87479182  0.51482500     0.29300
C1666       C  0.78671945  0.88555560  0.53040944    -0.21500
C1667       C  0.82239837  0.86797244  0.52745402    -0.09500
C1668       C  0.82799565  0.84243131  0.50707845     0.29300
F1669       F  0.86221479  0.82522371  0.00357596    -0.20100
H1670       H  0.80192177  0.81011509  0.97711656     0.17700
H1671       H  0.78172417  0.90478013  0.54629851     0.17700
F1672       F  0.72073443  0.88833365  0.52020418    -0.20100
C1673       C  0.75577039  0.72355365  0.90935239    -0.21500
C1674       C  0.72755551  0.75185120  0.90758509    -0.09500
C1675       C  0.71724617  0.76568240  0.88334290     0.29300
C1676       C  0.73423716  0.75074116  0.86142324    -0.21500
C1677       C  0.76194248  0.72195166  0.86315229    -0.09500
C1678       C  0.77298942  0.70882438  0.88742665     0.29300
F1679       F  0.80089027  0.68236183  0.89010746    -0.20100
H1680       H  0.76471591  0.71282640  0.92780060     0.17700
H1681       H  0.72528939  0.76152829  0.84299208     0.17700
F1682       F  0.69007129  0.79288118  0.88064471    -0.20100
C1683       C  0.45165478  0.72416788  0.67870191    -0.21500
C1684       C  0.46232242  0.76221747  0.68208672    -0.09500
C1685       C  0.50083110  0.77068177  0.68674936     0.29300
C1686       C  0.52834419  0.74177474  0.68643451    -0.21500
C1687       C  0.51809629  0.70409231  0.68084045    -0.09500
C1688       C  0.47918618  0.69538359  0.67779273     0.29300
F1689       F  0.46780161  0.65927095  0.67269453    -0.20100
H1690       H  0.42228111  0.71700459  0.67486857     0.17700
H1691       H  0.55793998  0.74930755  0.68887588     0.17700
F1692       F  0.51208547  0.80720013  0.69042181    -0.20100
C1693       C  0.34831012  0.00016782  0.63329795    -0.21500
C1694       C  0.37889850  0.00445802  0.65032369    -0.09500
C1695       C  0.39527557  0.04060392  0.65342316     0.29300
C1696       C  0.38459978  0.07056456  0.63756091    -0.21500
C1697       C  0.35713504  0.06528168  0.61846193    -0.09500
C1698       C  0.33723870  0.03060126  0.61747157     0.29300
F1699       F  0.31033788  0.02473529  0.59931102    -0.20100
H1700       H  0.33551335  0.97247976  0.63052388     0.17700
H1701       H  0.39999928  0.09715066  0.63886042     0.17700
F1702       F  0.42434155  0.04588201  0.67014249    -0.20100
C1703       C  0.52427787  0.84773775  0.58903776    -0.21500
C1704       C  0.50565875  0.88283613  0.59175834    -0.09500
C1705       C  0.50710547  0.90917050  0.57158805     0.29300
C1706       C  0.52675468  0.90003927  0.54898894    -0.21500
C1707       C  0.54551558  0.86477949  0.54640318    -0.09500
C1708       C  0.54393267  0.83870270  0.56680800     0.29300
F1709       F  0.56058814  0.80384938  0.56523300    -0.20100
H1710       H  0.52350327  0.82688095  0.60425106     0.17700
H1711       H  0.52737654  0.92053869  0.53357908     0.17700
F1712       F  0.48854755  0.94298340  0.57334879    -0.20100
C1713       C  0.38532476  0.79122765  0.57841777    -0.21500
C1714       C  0.36075786  0.78938254  0.59958013    -0.09500
C1715       C  0.32735470  0.76744445  0.59762133     0.29300
C1716       C  0.31940202  0.74742761  0.57503983    -0.21500
C1717       C  0.34481037  0.74859730  0.55439527    -0.09500
C1718       C  0.37759890  0.77106523  0.55616987     0.29300
F1719       F  0.40228790  0.77367077  0.53628215    -0.20100
H1720       H  0.41113697  0.80790051  0.57908127     0.17700
H1721       H  0.29407237  0.73007347  0.57397521     0.17700
F1722       F  0.30263961  0.76487773  0.61746028    -0.20100
C1723       C  0.28379768  0.88540134  0.74002304    -0.21500
C1724       C  0.31972858  0.86819588  0.74251218    -0.09500
C1725       C  0.32579460  0.84186855  0.76226393     0.29300
C1726       C  0.29576306  0.83050757  0.77776513    -0.21500
C1727       C  0.25905677  0.84486178  0.77380198    -0.09500
C1728       C  0.25338957  0.87361214  0.75551951     0.29300
F1729       F  0.21791544  0.88707645  0.75072800    -0.20100
H1730       H  0.27842387  0.90517432  0.72458146     0.17700
H1731       H  0.30054623  0.80811605  0.79161406     0.17700
F1732       F  0.36014530  0.82471455  0.76517618    -0.20100
C1733       C  0.46103056  0.22696318  0.83430875    -0.21500
C1734       C  0.47234050  0.26466124  0.83882114    -0.09500
C1735       C  0.51152727  0.27297338  0.83986451     0.29300
C1736       C  0.53848742  0.24372418  0.83846402    -0.21500
C1737       C  0.52689740  0.20574489  0.83654026    -0.09500
C1738       C  0.48801507  0.19765158  0.83342089     0.29300
F1739       F  0.47601027  0.16116405  0.83086968    -0.20100
H1740       H  0.43116529  0.21980098  0.83322236     0.17700
H1741       H  0.56826089  0.25053352  0.84095970     0.17700
F1742       F  0.52381039  0.30916227  0.84350158    -0.20100
C1743       C  0.48242861  0.06146270  0.95020054    -0.21500
C1744       C  0.48157927  0.08682048  0.92948503    -0.09500
C1745       C  0.45891673  0.11968477  0.93115714     0.29300
C1746       C  0.43811665  0.12740679  0.95318503    -0.21500
C1747       C  0.43948632  0.10285969  0.97436056    -0.09500
C1748       C  0.46185166  0.06952104  0.97263136     0.29300
F1749       F  0.46405523  0.04486630  0.99250269    -0.20100
H1750       H  0.49984730  0.03602967  0.94928981     0.17700
H1751       H  0.42131524  0.15327784  0.95369464     0.17700
F1752       F  0.45657302  0.14441281  0.91130606    -0.20100
C1753       C  0.59989925  0.89837065  0.88268997    -0.21500
C1754       C  0.62692064  0.90465929  0.90197006    -0.09500
C1755       C  0.64567540  0.93989114  0.90309973     0.29300
C1756       C  0.63425022  0.96968378  0.88697651    -0.21500
C1757       C  0.60402499  0.96444295  0.86981353    -0.09500
C1758       C  0.58846714  0.92796395  0.86674003     0.29300
F1759       F  0.55970806  0.92190167  0.84990224    -0.20100
H1760       H  0.58529417  0.87133403  0.88141084     0.17700
H1761       H  0.64626359  0.99773162  0.88974006     0.17700
F1762       F  0.67141289  0.94697774  0.92181920    -0.20100
C1763       C  0.47142105  0.98315366  0.78404652    -0.21500
C1764       C  0.50549434  0.00395506  0.78278850    -0.09500
C1765       C  0.52295369  0.00909727  0.75887267     0.29300
C1766       C  0.50724151  0.99281802  0.73699956    -0.21500
C1767       C  0.47369265  0.97123008  0.73829440    -0.09500
C1768       C  0.45555514  0.96702206  0.76211051     0.29300
F1769       F  0.42283951  0.94696444  0.76443781    -0.20100
H1770       H  0.45698124  0.97904052  0.80211576     0.17700
H1771       H  0.52173756  0.99703764  0.71896700     0.17700
F1772       F  0.55504350  0.03009225  0.75640764    -0.20100
C1773       C  0.59568341  0.19703328  0.93373380    -0.21500
C1774       C  0.62584971  0.18403671  0.91855915    -0.09500
C1775       C  0.66333063  0.19256385  0.92575329     0.29300
C1776       C  0.67027816  0.21309234  0.94832885    -0.21500
C1777       C  0.63991280  0.22564490  0.96377334    -0.09500
C1778       C  0.60238942  0.21755060  0.95599334     0.29300
F1779       F  0.57184976  0.22850409  0.97011294    -0.20100
H1780       H  0.56654407  0.19103726  0.92838747     0.17700
H1781       H  0.69936138  0.21887839  0.95381477     0.17700
F1782       F  0.69309556  0.17977642  0.91160367    -0.20100
C1783       C  0.70473128  0.07845940  0.78086705    -0.21500
C1784       C  0.66786333  0.09286699  0.77693760    -0.09500
C1785       C  0.66076873  0.11526964  0.75524794     0.29300
C1786       C  0.69065033  0.12654873  0.73944909    -0.21500
C1787       C  0.72814200  0.11564150  0.74490298    -0.09500
C1788       C  0.73484554  0.08982713  0.76492858     0.29300
F1789       F  0.77091914  0.07942307  0.77095772    -0.20100
H1790       H  0.71092325  0.06169714  0.79771714     0.17700
H1791       H  0.68496438  0.14667166  0.72425106     0.17700
F1792       F  0.62542720  0.12937111  0.75082524    -0.20100
loop_ 
_geom_bond_atom_site_label_1 
_geom_bond_atom_site_label_2 
_geom_bond_distance 
_geom_bond_site_symmetry_2 
_ccdc_geom_bond_type 
O1           Ni7   1.930       .  S
O1           C22   1.273       .  A
O2          Ni25   1.892       .  S
O2           C11   1.264       .  A
O3           Ni7   1.911       .  S
O3          Ni25   1.895       .  S
O3          Ni19   1.909       .  S
O3           H26   0.967       .  S
C4           O21   1.281       .  A
C4           O13   1.277       .  A
C4          C868   1.479       .  S
O5          Ni24   1.945       .  S
O5           C11   1.273       .  A
O6          Ni24   1.901   1_565  S
O6            C8   1.270       .  A
Ni7          O10   1.937       .  S
Ni7          O12   1.920       .  S
C8           O18   1.275   1_565  A
C8          C861   1.472       .  S
O9          Ni25   1.894       .  S
O9           C15   1.273       .  A
O10          C15   1.279       .  A
C11         C848   1.476       .  S
O12          C14   1.269       .  A
O13         Ni24   1.912       .  S
C14          O20   1.265       .  A
C14         C841   1.475       .  S
C15         C878   1.470       .  S
H16          O17   0.966       .  S
O17         Ni25   1.890       .  S
O17         Ni19   1.902       .  S
O17         Ni24   1.897       .  S
O18         Ni19   1.936       .  S
Ni19         O23   1.928       .  S
Ni19         O21   1.920       .  S
O20         Ni25   1.909       .  S
C22          O23   1.274       .  A
C22         C888   1.479       .  S
O27         Ni33   1.948       .  S
O27          C48   1.274       .  A
O28         Ni51   1.924       .  S
O28          C37   1.274       .  A
O29         Ni33   1.895       .  S
O29         Ni51   1.905       .  S
O29         Ni45   1.893       .  S
O29          H52   0.966       .  S
C30          O47   1.276       .  A
C30          O39   1.279       .  A
C30         C818   1.481       .  S
O31         Ni50   1.922       .  S
O31          C37   1.272       .  A
O32         Ni50   1.924       .  S
O32          C34   1.269       .  A
Ni33         O36   1.917       .  S
Ni33         O38   1.895       .  S
C34          O44   1.263       .  A
C34         C788   1.480       .  S
O35         Ni51   1.916       .  S
O35          C41   1.278       .  A
O36          C41   1.278       .  A
C37         C828   1.474       .  S
O38          C40   1.269       .  A
O39         Ni50   1.929       .  S
C40          O46   1.278       .  A
C40         C798   1.477   1_565  S
C41         C871   1.481       .  S
H42          O43   0.966       .  S
O43         Ni51   1.906       .  S
O43         Ni45   1.883       .  S
O43         Ni50   1.906       .  S
O44         Ni45   1.908       .  S
Ni45         O49   1.881       .  S
Ni45         O47   1.902       .  S
O46         Ni51   1.949       .  S
C48          O49   1.261       .  A
C48         C808   1.475       .  S
O53         Ni59   1.930       .  S
O53          C74   1.274       .  A
O54        Ni973   1.877       .  S
O54          C63   1.260       .  A
O55         Ni59   1.910       .  S
O55         Ni77   1.885       .  S
O55         Ni71   1.905       .  S
O55          H78   0.967       .  S
C56          O73   1.277       .  A
C56          O65   1.277       .  A
C56         C778   1.475       .  S
O57        Ni972   1.946   1_554  S
O57          C63   1.272       .  A
O58         Ni76   1.894       .  S
O58          C60   1.269       .  A
Ni59         O64   1.919       .  S
Ni59        O958   1.943       .  S
C60          O70   1.279       .  A
C60        C1664   1.474       .  S
O61        Ni973   1.894       .  S
O61          C67   1.273       .  A
O62        Ni955   1.943   1_554  S
O62          C67   1.281       .  A
C63         C758   1.470       .  S
O64          C66   1.267       .  A
O65         Ni76   1.915       .  S
C66          O72   1.264       .  A
C66         C748   1.480       .  S
C67         C811   1.482       .  S
H68          O69   0.966       .  S
O69         Ni77   1.894       .  S
O69         Ni71   1.903       .  S
O69         Ni76   1.902       .  S
O70         Ni71   1.947       .  S
Ni71         O75   1.920       .  S
Ni71         O73   1.914       .  S
O72         Ni77   1.911       .  S
C74          O75   1.273       .  A
C74         C858   1.474       .  S
Ni76        O953   1.946       .  S
Ni77        O950   1.877       .  S
Ni77        O957   1.894       .  S
O79         Ni85   1.942       .  S
O79         C100   1.272       .  A
O80        Ni103   1.918       .  S
O80          C89   1.271       .  A
O81         Ni85   1.905       .  S
O81        Ni103   1.908       .  S
O81         Ni97   1.896       .  S
O81         H104   0.966       .  S
C82          O99   1.273       .  A
C82          O91   1.281       .  A
C82         C728   1.483       .  S
O83        Ni102   1.934       .  S
O83          C89   1.275       .  A
O84        Ni102   1.926       .  S
O84          C86   1.269       .  A
Ni85         O88   1.912       .  S
Ni85         O90   1.899       .  S
C86          O96   1.264       .  A
C86         C698   1.483       .  S
O87        Ni103   1.913       .  S
O87          C93   1.276       .  A
O88          C93   1.275       .  A
C89         C738   1.475       .  S
O90          C92   1.270       .  A
O91        Ni102   1.942       .  S
C92          O98   1.276       .  A
C92         C708   1.474       .  S
C93         C781   1.475       .  S
H94          O95   0.967       .  S
O95        Ni103   1.902       .  S
O95         Ni97   1.888       .  S
O95        Ni102   1.912       .  S
O96         Ni97   1.911       .  S
Ni97        O101   1.885       .  S
Ni97         O99   1.895       .  S
O98        Ni103   1.942       .  S
C100        O101   1.262       .  A
C100        C718   1.477       .  S
O105       Ni111   1.940       .  S
O105        C126   1.271       .  A
O106       Ni129   1.913       .  S
O106        C115   1.271       .  A
O107       Ni111   1.901       .  S
O107       Ni129   1.904       .  S
O107       Ni123   1.896       .  S
O107        H130   0.966       .  S
C108        O125   1.276       .  A
C108        O117   1.281       .  A
C108        C678   1.482       .  S
O109       Ni128   1.929       .  S
O109        C115   1.273       .  A
O110       Ni128   1.924       .  S
O110        C112   1.269       .  A
Ni111       O114   1.914       .  S
Ni111       O116   1.894       .  S
C112        O122   1.263       .  A
C112        C638   1.480       .  S
O113       Ni129   1.915       .  S
O113        C119   1.278       .  A
O114        C119   1.276       .  A
C115        C688   1.470       .  S
O116        C118   1.268       .  A
O117       Ni128   1.939       .  S
C118        O124   1.278       .  A
C118        C661   1.477   1_545  S
C119        C668   1.472       .  S
H120        O121   0.967       .  S
O121       Ni129   1.904       .  S
O121       Ni123   1.882       .  S
O121       Ni128   1.911       .  S
O122       Ni123   1.910       .  S
Ni123       O127   1.879       .  S
Ni123       O125   1.896       .  S
O124       Ni129   1.952       .  S
C126        O127   1.261       .  A
C126        C648   1.469   1_455  S
O131       Ni137   1.930       .  S
O131        C152   1.273       .  A
O132       Ni155   1.886       .  S
O132        C141   1.261       .  A
O133       Ni137   1.912       .  S
O133       Ni155   1.888       .  S
O133       Ni149   1.907       .  S
O133        H156   0.967       .  S
C134        O151   1.277       .  A
C134        O143   1.275       .  A
C134        C671   1.474       .  S
O135       Ni154   1.943       .  S
O135        C141   1.272       .  A
O136       Ni154   1.892       .  S
O136        C138   1.269       .  A
Ni137       O140   1.934       .  S
Ni137       O142   1.926       .  S
C138        O148   1.276       .  A
C138        C618   1.469   1_565  S
O139       Ni155   1.906       .  S
O139        C145   1.275       .  A
O140        C145   1.280       .  A
C141        C631   1.471   1_655  S
O142        C144   1.269       .  A
O143       Ni154   1.915       .  S
C144        O150   1.263       .  A
C144        C608   1.483       .  S
C145        C721   1.483       .  S
H146        O147   0.966       .  S
O147       Ni155   1.901       .  S
O147       Ni149   1.911       .  S
O147       Ni154   1.907       .  S
O148       Ni149   1.943       .  S
Ni149       O153   1.923       .  S
Ni149       O151   1.916       .  S
O150       Ni155   1.904       .  S
C152        O153   1.273       .  A
C152        C771   1.476       .  S
O157       Ni163   1.946       .  S
O157        C178   1.272       .  A
O158       Ni181   1.922       .  S
O158        C167   1.273       .  A
O159       Ni163   1.906       .  S
O159       Ni181   1.910       .  S
O159       Ni175   1.896       .  S
O159        H182   0.966       .  S
C160        O177   1.273       .  A
C160        O169   1.281       .  A
C160        C628   1.484       .  S
O161       Ni180   1.936       .  S
O161        C167   1.276       .  A
O162       Ni180   1.932       .  S
O162        C164   1.271       .  A
Ni163       O166   1.916       .  S
Ni163       O168   1.897       .  S
C164        O174   1.262       .  A
C164        C701   1.485       .  S
O165       Ni181   1.919       .  S
O165        C171   1.278       .  A
O166        C171   1.276       .  A
C167        C658   1.480       .  S
O168        C170   1.269       .  A
O169       Ni180   1.941       .  S
C170        O176   1.276       .  A
C170        C831   1.472       .  S
C171        C601   1.483       .  S
H172        O173   0.967       .  S
O173       Ni181   1.904       .  S
O173       Ni175   1.888       .  S
O173       Ni180   1.911       .  S
O174       Ni175   1.903       .  S
Ni175       O179   1.878       .  S
Ni175       O177   1.897       .  S
O176       Ni181   1.942       .  S
C178        O179   1.258       .  A
C178        C591   1.470       .  S
O183       Ni189   1.927       .  S
O183        C204   1.273       .  A
O184      Ni1103   1.882       .  S
O184        C193   1.261       .  A
O185       Ni189   1.907       .  S
O185       Ni207   1.886       .  S
O185       Ni201   1.906       .  S
O185        H208   0.967       .  S
C186        O203   1.279       .  A
C186        O195   1.277       .  A
C186        C598   1.482       .  S
O187      Ni1102   1.940   1_554  S
O187        C193   1.272       .  A
O188       Ni206   1.897       .  S
O188        C190   1.269       .  A
Ni189       O194   1.921       .  S
Ni189      O1088   1.936       .  S
C190        O200   1.277       .  A
C190       C1457   1.475       .  S
O191      Ni1103   1.902       .  S
O191        C197   1.276       .  A
O192      Ni1085   1.936   1_554  S
O192        C197   1.281       .  A
C193        C821   1.468       .  S
O194        C196   1.268       .  A
O195       Ni206   1.916       .  S
C196        O202   1.263       .  A
C196        C751   1.480       .  S
C197        C568   1.485       .  S
H198        O199   0.966       .  S
O199       Ni207   1.898       .  S
O199       Ni201   1.905       .  S
O199       Ni206   1.901       .  S
O200       Ni201   1.945       .  S
Ni201       O205   1.922       .  S
Ni201       O203   1.920       .  S
O202       Ni207   1.909       .  S
C204        O205   1.273       .  A
C204        C578   1.474       .  S
Ni206      O1083   1.940       .  S
Ni207      O1080   1.882       .  S
Ni207      O1087   1.902       .  S
O209       Ni215   1.926       .  S
O209        C230   1.274       .  A
O210       Ni233   1.876       .  S
O210        C219   1.260       .  A
O211       Ni215   1.905       .  S
O211       Ni233   1.882       .  S
O211       Ni227   1.903       .  S
O211        H234   0.967       .  S
C212        O229   1.278       .  A
C212        O221   1.278       .  A
C212        C531   1.482       .  S
O213       Ni232   1.949       .  S
O213        C219   1.274       .  A
O214       Ni232   1.900       .  S
O214        C216   1.270       .  A
Ni215       O218   1.934       .  S
Ni215       O220   1.927       .  S
C216        O226   1.278       .  A
C216        C518   1.477       .  S
O217       Ni233   1.901       .  S
O217        C223   1.275       .  A
O218        C223   1.281       .  A
C219        C681   1.471       .  S
O220        C222   1.269       .  A
O221       Ni232   1.918       .  S
C222        O228   1.265       .  A
C222        C508   1.487       .  S
C223        C538   1.483       .  S
H224        O225   0.966       .  S
O225       Ni233   1.894       .  S
O225       Ni227   1.904       .  S
O225       Ni232   1.898       .  S
O226       Ni227   1.947       .  S
Ni227       O231   1.920       .  S
Ni227       O229   1.918       .  S
O228       Ni233   1.916       .  S
C230        O231   1.272       .  A
C230        C548   1.473       .  S
O235       Ni241   1.949   1_556  S
O235       C1152   1.274       .  A
O236       Ni259   1.924       .  S
O236        C245   1.273       .  A
O237       Ni241   1.907       .  S
O237       Ni259   1.910       .  S
O237       Ni253   1.899       .  S
O237        H260   0.966       .  S
C238        O255   1.275       .  A
C238       O1143   1.281       .  A
C238        C851   1.487       .  S
O239       Ni258   1.931       .  S
O239        C245   1.274       .  A
O240       Ni258   1.922       .  S
O240        C242   1.268       .  A
Ni241       O244   1.919       .  S
Ni241       O246   1.897       .  S
C242        O252   1.263       .  A
C242        C491   1.480       .  S
O243       Ni259   1.914       .  S
O243        C249   1.276       .  A
O244        C249   1.276       .  A
C245        C801   1.479       .  S
O246        C248   1.269       .  A
O247       Ni258   1.941       .  S
O247       C1134   1.281   1_554  A
C248        O254   1.276       .  A
C248        C691   1.467       .  S
C249        C528   1.480       .  S
H250        O251   0.967       .  S
O251       Ni259   1.906       .  S
O251       Ni253   1.885       .  S
O251       Ni258   1.911       .  S
O252       Ni253   1.905       .  S
Ni253       O257   1.875   1_554  S
Ni253      O1151   1.901   1_554  S
O254       Ni259   1.939       .  S
O255      Ni1149   1.901       .  S
C256       O1131   1.274       .  A
C256       O1153   1.259       .  A
C256        C501   1.478       .  S
O257       C1152   1.259       .  A
O261       Ni267   1.941       .  S
O261        C282   1.271       .  A
O262       Ni285   1.921       .  S
O262        C271   1.273       .  A
O263       Ni267   1.897       .  S
O263       Ni285   1.906       .  S
O263       Ni279   1.894       .  S
O263        H286   0.966       .  S
C264        O281   1.273       .  A
C264        O273   1.281       .  A
C264        C761   1.480       .  S
O265       Ni284   1.930       .  S
O265        C271   1.274       .  A
O266       Ni284   1.924       .  S
O266        C268   1.269       .  A
Ni267       O270   1.912       .  S
Ni267       O272   1.891       .  S
C268        O278   1.263       .  A
C268        C791   1.486       .  S
O269       Ni285   1.915       .  S
O269        C275   1.278       .  A
O270        C275   1.276       .  A
C271        C711   1.477       .  S
O272        C274   1.269       .  A
O273       Ni284   1.940       .  S
C274        O280   1.278       .  A
C274        C471   1.474       .  S
C275        C481   1.479       .  S
H276        O277   0.967       .  S
O277       Ni285   1.904       .  S
O277       Ni279   1.888       .  S
O277       Ni284   1.911       .  S
O278       Ni279   1.907       .  S
Ni279       O283   1.888       .  S
Ni279       O281   1.891       .  S
O280       Ni285   1.947       .  S
C282        O283   1.261       .  A
C282        C571   1.466       .  S
O287       Ni293   1.926       .  S
O287        C308   1.272       .  A
O288       Ni311   1.873       .  S
O288        C297   1.261       .  A
O289       Ni293   1.906       .  S
O289       Ni311   1.883       .  S
O289       Ni305   1.903       .  S
O289        H312   0.968       .  S
C290        O307   1.277       .  A
C290        O299   1.276       .  A
C290        C478   1.480       .  S
O291       Ni310   1.950       .  S
O291        C297   1.274       .  A
O292       Ni310   1.899       .  S
O292        C294   1.270       .  A
Ni293       O296   1.936       .  S
Ni293       O298   1.920       .  S
C294        O304   1.275       .  A
C294        C581   1.470       .  S
O295       Ni311   1.900       .  S
O295        C301   1.275       .  A
O296        C301   1.280       .  A
C297        C458   1.480       .  S
O298        C300   1.268       .  A
O299       Ni310   1.918       .  S
C300        O306   1.265       .  A
C300        C838   1.483       .  S
C301        C498   1.477       .  S
H302        O303   0.966       .  S
O303       Ni311   1.892       .  S
O303       Ni305   1.906       .  S
O303       Ni310   1.905       .  S
O304       Ni305   1.938       .  S
Ni305       O309   1.922       .  S
Ni305       O307   1.911       .  S
O306       Ni311   1.911       .  S
C308        O309   1.272       .  A
C308        C521   1.476       .  S
O313       Ni319   1.933       .  S
O313        C334   1.275       .  A
O314       Ni337   1.875       .  S
O314        C323   1.260       .  A
O315       Ni319   1.909       .  S
O315       Ni337   1.884       .  S
O315       Ni331   1.904       .  S
O315        H338   0.968       .  S
C316        O333   1.278       .  A
C316        O325   1.275       .  A
C316        C451   1.479       .  S
O317       Ni336   1.939       .  S
O317        C323   1.270       .  A
O318       Ni336   1.900       .  S
O318        C320   1.269       .  A
Ni319       O322   1.940       .  S
Ni319       O324   1.925       .  S
C320        O330   1.276       .  A
C320        C891   1.476       .  S
O321       Ni337   1.891       .  S
O321        C327   1.272       .  A
O322        C327   1.281       .  A
C323        C441   1.468       .  S
O324        C326   1.270       .  A
O325       Ni336   1.911       .  S
C326        O332   1.266       .  A
C326        C511   1.489       .  S
C327        C651   1.479       .  S
H328        O329   0.966       .  S
O329       Ni337   1.893       .  S
O329       Ni331   1.904       .  S
O329       Ni336   1.905       .  S
O330       Ni331   1.946       .  S
Ni331       O335   1.913       .  S
Ni331       O333   1.917       .  S
O332       Ni337   1.919       .  S
C334        O335   1.271       .  A
C334        C621   1.473       .  S
O339       Ni345   1.947   1_556  S
O339       C1256   1.275       .  A
O340       Ni363   1.918       .  S
O340        C349   1.271       .  A
O341       Ni345   1.904       .  S
O341       Ni363   1.906       .  S
O341       Ni357   1.897       .  S
O341        H364   0.966       .  S
C342        O359   1.276       .  A
C342       O1247   1.279       .  A
C342        C461   1.470       .  S
O343       Ni362   1.925       .  S
O343        C349   1.272       .  A
O344       Ni362   1.922       .  S
O344        C346   1.268       .  A
Ni345       O348   1.924       .  S
Ni345       O350   1.898       .  S
C346        O356   1.264       .  A
C346        C488   1.479       .  S
O347       Ni363   1.904       .  S
O347        C353   1.275       .  A
O348        C353   1.277       .  A
C349        C468   1.475       .  S
O350        C352   1.270       .  A
O351       Ni362   1.934       .  S
O351       C1238   1.279       .  A
C352        O358   1.276       .  A
C352        C428   1.471       .  S
C353        C448   1.479       .  S
H354        O355   0.966       .  S
O355       Ni363   1.903       .  S
O355       Ni357   1.881       .  S
O355       Ni362   1.908       .  S
O356       Ni357   1.908       .  S
Ni357       O361   1.880   1_554  S
Ni357      O1255   1.898   1_554  S
O358       Ni363   1.942       .  S
O359      Ni1253   1.898       .  S
C360       O1235   1.275       .  A
C360       O1257   1.261       .  A
C360        C881   1.482       .  S
O361       C1256   1.261       .  A
O365       Ni371   1.929       .  S
O365        C386   1.274       .  A
O366       Ni389   1.879       .  S
O366        C375   1.261   1_455  A
O367       Ni371   1.907       .  S
O367       Ni389   1.888       .  S
O367       Ni383   1.904       .  S
O367        H390   0.968       .  S
C368        O385   1.278       .  A
C368        O377   1.276       .  A
C368        C421   1.481       .  S
O369       Ni388   1.946       .  S
O369        C375   1.272   1_455  A
O370       Ni388   1.897       .  S
O370        C372   1.269       .  A
Ni371       O374   1.934       .  S
Ni371       O376   1.921       .  S
C372        O382   1.275       .  A
C372        C551   1.471       .  S
O373       Ni389   1.900       .  S
O373        C379   1.274       .  A
O374        C379   1.280       .  A
C375        C731   1.474       .  S
O376        C378   1.269       .  A
O377       Ni388   1.911       .  S
C378        O384   1.264       .  A
C378        C611   1.483       .  S
C379        C588   1.481       .  S
H380        O381   0.966       .  S
O381       Ni389   1.894       .  S
O381       Ni383   1.911       .  S
O381       Ni388   1.905       .  S
O382       Ni383   1.939       .  S
Ni383       O387   1.923       .  S
Ni383       O385   1.921       .  S
O384       Ni389   1.911       .  S
C386        O387   1.272       .  A
C386        C558   1.477       .  S
O391       Ni397   1.941       .  S
O391        C412   1.271       .  A
O392       Ni415   1.919       .  S
O392        C401   1.272       .  A
O393       Ni397   1.905       .  S
O393       Ni415   1.905       .  S
O393       Ni409   1.893       .  S
O393        H416   0.966       .  S
C394        O411   1.270       .  A
C394        O403   1.280       .  A
C394        C438   1.475       .  S
O395       Ni414   1.932       .  S
O395        C401   1.274       .  A
O396       Ni414   1.920       .  S
O396        C398   1.268       .  A
Ni397       O400   1.912       .  S
Ni397       O402   1.899       .  S
C398        O408   1.266       .  A
C398        C641   1.482       .  S
O399       Ni415   1.919       .  S
O399        C405   1.279       .  A
O400        C405   1.276       .  A
C401        C431   1.473       .  S
O402        C404   1.269       .  A
O403       Ni414   1.939       .  S
C404        O410   1.274       .  A
C404        C741   1.472       .  S
C405        C418   1.481       .  S
H406        O407   0.966       .  S
O407       Ni415   1.906       .  S
O407       Ni409   1.889       .  S
O407       Ni414   1.913       .  S
O408       Ni409   1.913       .  S
Ni409       O413   1.885       .  S
Ni409       O411   1.885       .  S
O410       Ni415   1.939       .  S
C412        O413   1.261       .  A
C412        C541   1.468   1_655  S
C417        C418   1.410   1_455  A
C417       C1318   1.397       .  A
C417        H424   1.083       .  S
C418       C1315   1.405       .  A
C419        C420   1.392       .  A
C419       C1314   1.405   1_554  A
C419        F426   1.358       .  S
C420        C421   1.408   1_655  A
C420        H425   1.083       .  S
C421        C422   1.407       .  A
C422       C1313   1.397   1_554  A
C422       F1319   1.358       .  S
F423       C1318   1.358       .  S
C427        C432   1.405       .  A
C427       C1324   1.404       .  A
C427        H434   1.083       .  S
C428        C429   1.404       .  A
C428       C1323   1.404       .  A
C429        C430   1.396       .  A
C429        F436   1.358       .  S
C430       C1327   1.402   1_554  A
C430        H435   1.084       .  S
C431        C432   1.407       .  A
C431       C1326   1.402       .  A
C432        F433   1.357       .  S
C437        C438   1.407       .  A
C437        C442   1.402       .  A
C437        H444   1.083       .  S
C438        C439   1.409       .  A
C439        C440   1.383       .  A
C439        F446   1.359       .  S
C440        C441   1.400       .  A
C440        H445   1.084       .  S
C441        C442   1.406       .  A
C442        F443   1.357       .  S
C447        C448   1.404       .  A
C447        C452   1.391       .  A
C447        H454   1.083       .  S
C448        C449   1.410       .  A
C449        C450   1.397       .  A
C449        F456   1.357       .  S
C450        C451   1.405       .  A
C450        H455   1.083       .  S
C451        C452   1.410       .  A
C452        F453   1.358       .  S
C457        C458   1.405       .  A
C457        C462   1.382       .  A
C457        H464   1.083       .  S
C458        C459   1.411       .  A
C459        C460   1.407       .  A
C459        F466   1.357       .  S
C460        C461   1.406       .  A
C460        H465   1.083       .  S
C461        C462   1.402       .  A
C462        F463   1.358       .  S
C467        C468   1.407       .  A
C467        C472   1.406       .  A
C467        H474   1.083       .  S
C468        C469   1.405       .  A
C469        C470   1.391       .  A
C469        F476   1.359       .  S
C470        C471   1.404       .  A
C470        H475   1.084       .  S
C471        C472   1.406       .  A
C472        F473   1.357       .  S
C477        C478   1.404       .  A
C477        C482   1.392       .  A
C477        H484   1.083       .  S
C478        C479   1.411       .  A
C479        C480   1.394       .  A
C479        F486   1.357       .  S
C480        C481   1.404       .  A
C480        H485   1.083       .  S
C481        C482   1.411       .  A
C482        F483   1.358       .  S
C487        C488   1.408       .  A
C487        C492   1.400       .  A
C487        H494   1.083       .  S
C488        C489   1.405       .  A
C489        C490   1.399       .  A
C489        F496   1.358       .  S
C490        C491   1.408       .  A
C490        H495   1.084       .  S
C491        C492   1.405       .  A
C492        F493   1.357       .  S
C497        C498   1.408       .  A
C497        C502   1.405       .  A
C497        H504   1.083       .  S
C498        C499   1.406       .  A
C499        C500   1.387       .  A
C499        F506   1.358       .  S
C500        C501   1.405       .  A
C500        H505   1.084       .  S
C501        C502   1.407       .  A
C502        F503   1.357       .  S
C507        C508   1.404   1_655  A
C507        C512   1.403       .  A
C507        H514   1.083       .  S
C508        C509   1.410       .  A
C509        C510   1.403       .  A
C509        F516   1.358       .  S
C510        C511   1.405   1_455  A
C510        H515   1.083       .  S
C511        C512   1.412       .  A
C512        F513   1.358       .  S
C517        C518   1.403       .  A
C517        C522   1.393       .  A
C517        H524   1.084       .  S
C518        C519   1.407       .  A
C519        C520   1.407       .  A
C519        F526   1.357       .  S
C520        C521   1.406       .  A
C520        H525   1.083       .  S
C521        C522   1.405       .  A
C522        F523   1.358       .  S
C527        C528   1.407       .  A
C527        C532   1.396       .  A
C527        H534   1.083       .  S
C528        C529   1.406       .  A
C529        C530   1.394       .  A
C529        F536   1.358       .  S
C530        C531   1.407       .  A
C530        H535   1.083       .  S
C531        C532   1.408       .  A
C532        F533   1.358       .  S
C537        C538   1.410       .  A
C537        C542   1.402       .  A
C537        H544   1.083       .  S
C538        C539   1.411       .  A
C539        C540   1.389       .  A
C539        F546   1.358       .  S
C540        C541   1.400       .  A
C540        H545   1.084       .  S
C541        C542   1.403       .  A
C542        F543   1.357   1_455  S
C547        C548   1.406       .  A
C547        C552   1.407       .  A
C547        H554   1.083       .  S
C548        C549   1.404       .  A
C549        C550   1.392       .  A
C549        F556   1.358       .  S
C550        C551   1.401       .  A
C550        H555   1.084       .  S
C551        C552   1.407       .  A
C552        F553   1.358       .  S
C557        C558   1.407       .  A
C557        C562   1.408       .  A
C557        H564   1.083       .  S
C558       C1455   1.404       .  A
C559        C560   1.393       .  A
C559       C1454   1.404       .  A
C559        F566   1.358       .  S
C560       C1457   1.402       .  A
C560        H565   1.084       .  S
C561       C1086   1.475       .  S
C561        C562   1.407   1_556  A
C561       C1456   1.402       .  A
C562        F563   1.357       .  S
C567        C568   1.408       .  A
C567        C572   1.391       .  A
C567        H574   1.083       .  S
C568        C569   1.413       .  A
C569        C570   1.402       .  A
C569        F576   1.357       .  S
C570        C571   1.401       .  A
C570        H575   1.083       .  S
C571        C572   1.401       .  A
C572        F573   1.358       .  S
C577        C578   1.406       .  A
C577        C582   1.406       .  A
C577        H584   1.083       .  S
C578        C579   1.405       .  A
C579        C580   1.394       .  A
C579        F586   1.358       .  S
C580        C581   1.401       .  A
C580        H585   1.084       .  S
C581        C582   1.406       .  A
C582        F583   1.358       .  S
C587        C588   1.409       .  A
C587        C592   1.401       .  A
C587        H594   1.083       .  S
C588        C589   1.410       .  A
C589        C590   1.390       .  A
C589        F596   1.358       .  S
C590        C591   1.402       .  A
C590        H595   1.084       .  S
C591        C592   1.403       .  A
C592        F593   1.357       .  S
C597        C598   1.408       .  A
C597        C602   1.397       .  A
C597        H604   1.083       .  S
C598        C599   1.407       .  A
C599        C600   1.395       .  A
C599        F606   1.358       .  S
C600        C601   1.408       .  A
C600        H605   1.083       .  S
C601        C602   1.407       .  A
C602        F603   1.358       .  S
C607        C608   1.408   1_455  A
C607        C612   1.398       .  A
C607        H614   1.084       .  S
C608        C609   1.406       .  A
C609        C610   1.402       .  A
C609        F616   1.357       .  S
C610        C611   1.409   1_655  A
C610        H615   1.083       .  S
C611        C612   1.404       .  A
C612        F613   1.357       .  S
C617        C618   1.402       .  A
C617        C622   1.393       .  A
C617        H624   1.084       .  S
C618        C619   1.405   1_545  A
C619        C620   1.404   1_565  A
C619        F626   1.357       .  S
C620        C621   1.406       .  A
C620        H625   1.083       .  S
C621        C622   1.404       .  A
C622        F623   1.358       .  S
C627        C628   1.407       .  A
C627        C632   1.391       .  A
C627        H634   1.083       .  S
C628        C629   1.411       .  A
C629        C630   1.402       .  A
C629        F636   1.357       .  S
C630        C631   1.403       .  A
C630        H635   1.083   1_455  S
C631        C632   1.404       .  A
C632        F633   1.359       .  S
C637        C638   1.409   1_655  A
C637        C642   1.402       .  A
C637        H644   1.084       .  S
C638        C639   1.404       .  A
C639        C640   1.398   1_455  A
C639        F646   1.357       .  S
C640        C641   1.407       .  A
C640        H645   1.084   1_655  S
C641        C642   1.406       .  A
C642        F643   1.358       .  S
C647        C648   1.400       .  A
C647        C652   1.386       .  A
C647        H654   1.084       .  S
C648        C649   1.405       .  A
C649        C650   1.403       .  A
C649        F656   1.357       .  S
C650        C651   1.408       .  A
C650        H655   1.083       .  S
C651        C652   1.410       .  A
C652        F653   1.358       .  S
C657        C658   1.402       .  A
C657        C662   1.396       .  A
C657        H664   1.084       .  S
C658        C659   1.409       .  A
C659        C660   1.409       .  A
C659        F666   1.357       .  S
C660        C661   1.405       .  A
C660        H665   1.083   1_565  S
C661        C662   1.406       .  A
C662        F663   1.358       .  S
C667        C672   1.394       .  A
C667       C1564   1.402   1_554  A
C667        H674   1.084       .  S
C668        C669   1.408   1_445  A
C668       C1563   1.402       .  A
C669        C670   1.395       .  A
C669        F676   1.358       .  S
C670       C1567   1.403       .  A
C670        H675   1.083       .  S
C671        C672   1.410   1_665  A
C671       C1566   1.403       .  A
C672        F673   1.358       .  S
C677        C678   1.405       .  A
C677        C682   1.385       .  A
C677        H684   1.083       .  S
C678        C679   1.412       .  A
C679        C680   1.406       .  A
C679        F686   1.357       .  S
C680        C681   1.404       .  A
C680        H685   1.083       .  S
C681        C682   1.404       .  A
C682        F683   1.359       .  S
C687        C692   1.394       .  A
C687       C1584   1.401   1_554  A
C687        H694   1.084       .  S
C688        C689   1.406       .  A
C688       C1583   1.401       .  A
C689        C690   1.403       .  A
C689        F696   1.358       .  S
C690       C1587   1.403       .  A
C690        H695   1.083       .  S
C691        C692   1.404       .  A
C691       C1586   1.403       .  A
C692        F693   1.358       .  S
C697        C698   1.401   1_455  A
C697        C702   1.400       .  A
C697        H704   1.083       .  S
C698        C699   1.412       .  A
C699        C700   1.403       .  A
C699        F706   1.358       .  S
C700        C701   1.403   1_655  A
C700        H705   1.083       .  S
C701        C702   1.413       .  A
C702        F703   1.358       .  S
C707        C708   1.405       .  A
C707        C712   1.407       .  A
C707        H714   1.083       .  S
C708        C709   1.405       .  A
C709        C710   1.393       .  A
C709        F716   1.358       .  S
C710        C711   1.403       .  A
C710        H715   1.084       .  S
C711        C712   1.408       .  A
C712        F713   1.357       .  S
C717        C718   1.403       .  A
C717        C722   1.390       .  A
C717        H724   1.084       .  S
C718        C719   1.406       .  A
C719        C720   1.404       .  A
C719        F726   1.357       .  S
C720        C721   1.410       .  A
C720        H725   1.083       .  S
C721        C722   1.409       .  A
C722        F723   1.358       .  S
C727        C728   1.410       .  A
C727        C732   1.406       .  A
C727        H734   1.083       .  S
C728        C729   1.409       .  A
C729        C730   1.386       .  A
C729        F736   1.358       .  S
C730        C731   1.401       .  A
C730        H735   1.084       .  S
C731        C732   1.406       .  A
C732        F733   1.357       .  S
C737        C738   1.402       .  A
C737        C742   1.395       .  A
C737        H744   1.084       .  S
C738        C739   1.407       .  A
C739        C740   1.405       .  A
C739        F746   1.357       .  S
C740        C741   1.405       .  A
C740        H745   1.083       .  S
C741        C742   1.404       .  A
C742        F743   1.358       .  S
C747        C748   1.402       .  A
C747        C752   1.399       .  A
C747        H754   1.083       .  S
C748        C749   1.410       .  A
C749        C750   1.400       .  A
C749        F756   1.358       .  S
C750        C751   1.402       .  A
C750        H755   1.083       .  S
C751        C752   1.411       .  A
C752        F753   1.358       .  S
C757        C758   1.400       .  A
C757        C762   1.385       .  A
C757        H764   1.084       .  S
C758        C759   1.405       .  A
C759        C760   1.405       .  A
C759        F766   1.357       .  S
C760        C761   1.409       .  A
C760        H765   1.083       .  S
C761        C762   1.410       .  A
C762        F763   1.358       .  S
C767       C1664   1.404       .  A
C767       C1668   1.395       .  A
C767        H774   1.084       .  S
C768        C956   1.474       .  S
C768        C769   1.405   1_556  A
C768       C1663   1.404       .  A
C769        C770   1.406       .  A
C769        F776   1.357       .  S
C770        C771   1.406       .  A
C770        H775   1.083       .  S
C771        C772   1.404       .  A
C772       C1663   1.395   1_554  A
C772       F1669   1.358       .  S
F773       C1668   1.358       .  S
C777        C778   1.406       .  A
C777        C782   1.394       .  A
C777        H784   1.083       .  S
C778        C779   1.406       .  A
C779        C780   1.393       .  A
C779        F786   1.358       .  S
C780        C781   1.406       .  A
C780        H785   1.083       .  S
C781        C782   1.406       .  A
C782        F783   1.358       .  S
C787        C788   1.401       .  A
C787        C792   1.399       .  A
C787        H794   1.083       .  S
C788        C789   1.410       .  A
C789        C790   1.401       .  A
C789        F796   1.358       .  S
C790        C791   1.404       .  A
C790        H795   1.083       .  S
C791        C792   1.413       .  A
C792        F793   1.358       .  S
C797        C798   1.405       .  A
C797        C802   1.408       .  A
C797        H804   1.083   1_545  S
C798        C799   1.406       .  A
C799        C800   1.393       .  A
C799        F806   1.359       .  S
C800        C801   1.402       .  A
C800        H805   1.084       .  S
C801        C802   1.409       .  A
C802        F803   1.357       .  S
C807        C808   1.402       .  A
C807        C812   1.388       .  A
C807        H814   1.084       .  S
C808        C809   1.406       .  A
C809        C810   1.405       .  A
C809        F816   1.357       .  S
C810        C811   1.408       .  A
C810        H815   1.083       .  S
C811        C812   1.410       .  A
C812        F813   1.359       .  S
C817        C818   1.406       .  A
C817        C822   1.388       .  A
C817        H824   1.083       .  S
C818        C819   1.412       .  A
C819        C820   1.401       .  A
C819        F826   1.357       .  S
C820        C821   1.402       .  A
C820        H825   1.083       .  S
C821        C822   1.403       .  A
C822        F823   1.359       .  S
C827        C828   1.406       .  A
C827        C832   1.407       .  A
C827        H834   1.083       .  S
C828        C829   1.405       .  A
C829        C830   1.392       .  A
C829        F836   1.358       .  S
C830        C831   1.401       .  A
C830        H835   1.084       .  S
C831        C832   1.407       .  A
C832        F833   1.357       .  S
C837        C838   1.404       .  A
C837        C842   1.400       .  A
C837        H844   1.083       .  S
C838        C839   1.412       .  A
C839        C840   1.398       .  A
C839        F846   1.358       .  S
C840        C841   1.400       .  A
C840        H845   1.083       .  S
C841        C842   1.408       .  A
C842        F843   1.358       .  S
C847        C848   1.405       .  A
C847        C852   1.406       .  A
C847        H854   1.083       .  S
C848        C849   1.404       .  A
C849        C850   1.390       .  A
C849        F856   1.358       .  S
C850        C851   1.407       .  A
C850        H855   1.083       .  S
C851        C852   1.412       .  A
C852        F853   1.357       .  S
C857        C858   1.404       .  A
C857        C862   1.394       .  A
C857        H864   1.084       .  S
C858        C859   1.406       .  A
C859        C860   1.404       .  A
C859        F866   1.357       .  S
C860        C861   1.404       .  A
C860        H865   1.083       .  S
C861        C862   1.405       .  A
C862        F863   1.359       .  S
C867        C868   1.408   1_565  A
C867        C872   1.395       .  A
C867        H874   1.083       .  S
C868        C869   1.406       .  A
C869        C870   1.393   1_545  A
C869        F876   1.358       .  S
C870        C871   1.407       .  A
C870        H875   1.083       .  S
C871        C872   1.408       .  A
C872        F873   1.358       .  S
C877        C878   1.400       .  A
C877        C882   1.388       .  A
C877        H884   1.084       .  S
C878        C879   1.405       .  A
C879        C880   1.403       .  A
C879        F886   1.357       .  S
C880        C881   1.408       .  A
C880        H885   1.083       .  S
C881        C882   1.412       .  A
C882        F883   1.358       .  S
C887        C888   1.407       .  A
C887        C892   1.408       .  A
C887        H894   1.083       .  S
C888        C889   1.405       .  A
C889        C890   1.397       .  A
C889        F896   1.358       .  S
C890        C891   1.402       .  A
C890        H895   1.084       .  S
C891        C892   1.407       .  A
C892        F893   1.357       .  S
O897       Ni903   1.930       .  S
O897        C918   1.273       .  A
O898       Ni921   1.892       .  S
O898        C907   1.264       .  A
O899       Ni903   1.911       .  S
O899       Ni921   1.895       .  S
O899       Ni915   1.909       .  S
O899        H922   0.967       .  S
C900        O917   1.281       .  A
C900        O909   1.277       .  A
C900       C1764   1.479       .  S
O901       Ni920   1.945       .  S
O901        C907   1.273       .  A
O902       Ni920   1.901   1_565  S
O902        C904   1.270       .  A
Ni903       O906   1.937       .  S
Ni903       O908   1.920       .  S
C904        O914   1.275   1_565  A
C904       C1757   1.472       .  S
O905       Ni921   1.894       .  S
O905        C911   1.273       .  A
O906        C911   1.279       .  A
C907       C1744   1.476       .  S
O908        C910   1.269       .  A
O909       Ni920   1.912       .  S
C910        O916   1.265       .  A
C910       C1737   1.475       .  S
C911       C1774   1.470       .  S
H912        O913   0.966       .  S
O913       Ni921   1.890       .  S
O913       Ni915   1.902       .  S
O913       Ni920   1.897       .  S
O914       Ni915   1.936       .  S
Ni915       O919   1.928       .  S
Ni915       O917   1.920       .  S
O916       Ni921   1.909       .  S
C918        O919   1.274       .  A
C918       C1784   1.479       .  S
O923       Ni929   1.948       .  S
O923        C944   1.274       .  A
O924       Ni947   1.924       .  S
O924        C933   1.274       .  A
O925       Ni929   1.895       .  S
O925       Ni947   1.905       .  S
O925       Ni941   1.893       .  S
O925        H948   0.966       .  S
C926        O943   1.276       .  A
C926        O935   1.279       .  A
C926       C1714   1.481       .  S
O927       Ni946   1.922       .  S
O927        C933   1.272       .  A
O928       Ni946   1.924       .  S
O928        C930   1.269       .  A
Ni929       O932   1.917       .  S
Ni929       O934   1.895       .  S
C930        O940   1.263       .  A
C930       C1684   1.480       .  S
O931       Ni947   1.916       .  S
O931        C937   1.278       .  A
O932        C937   1.278       .  A
C933       C1724   1.474       .  S
O934        C936   1.269       .  A
O935       Ni946   1.929       .  S
C936        O942   1.278       .  A
C936       C1694   1.477   1_565  S
C937       C1767   1.481       .  S
H938        O939   0.966       .  S
O939       Ni947   1.906       .  S
O939       Ni941   1.883       .  S
O939       Ni946   1.906       .  S
O940       Ni941   1.908       .  S
Ni941       O945   1.881       .  S
Ni941       O943   1.902       .  S
O942       Ni947   1.949       .  S
C944        O945   1.261       .  A
C944       C1704   1.475       .  S
O949       Ni955   1.930       .  S
O949        C970   1.274       .  A
O950        C959   1.260       .  A
O951       Ni955   1.910       .  S
O951       Ni973   1.885   1_556  S
O951       Ni967   1.905       .  S
O951        H974   0.967       .  S
C952        O969   1.277       .  A
C952        O961   1.277       .  A
C952       C1674   1.475       .  S
O953        C959   1.272       .  A
O954       Ni972   1.894       .  S
O954        C956   1.269       .  A
Ni955       O960   1.919       .  S
C956        O966   1.279       .  A
O957        C963   1.273       .  A
O958        C963   1.281       .  A
C959       C1654   1.470       .  S
O960        C962   1.267       .  A
O961       Ni972   1.915       .  S
C962        O968   1.264       .  A
C962       C1644   1.480       .  S
C963       C1707   1.482       .  S
H964        O965   0.966       .  S
O965       Ni973   1.894   1_556  S
O965       Ni967   1.903       .  S
O965       Ni972   1.902       .  S
O966       Ni967   1.947       .  S
Ni967       O971   1.920       .  S
Ni967       O969   1.914       .  S
O968       Ni973   1.911   1_556  S
C970        O971   1.273       .  A
C970       C1754   1.474       .  S
O975       Ni981   1.942       .  S
O975        C996   1.272       .  A
O976       Ni999   1.918       .  S
O976        C985   1.271       .  A
O977       Ni981   1.905       .  S
O977       Ni999   1.908       .  S
O977       Ni993   1.896       .  S
O977       H1000   0.966       .  S
C978        O995   1.273       .  A
C978        O987   1.281       .  A
C978       C1624   1.483       .  S
O979       Ni998   1.934       .  S
O979        C985   1.275       .  A
O980       Ni998   1.926       .  S
O980        C982   1.269       .  A
Ni981       O984   1.912       .  S
Ni981       O986   1.899       .  S
C982        O992   1.264       .  A
C982       C1594   1.483       .  S
O983       Ni999   1.913       .  S
O983        C989   1.276       .  A
O984        C989   1.275       .  A
C985       C1634   1.475       .  S
O986        C988   1.270       .  A
O987       Ni998   1.942       .  S
C988        O994   1.276       .  A
C988       C1604   1.474       .  S
C989       C1677   1.475       .  S
H990        O991   0.967       .  S
O991       Ni999   1.902       .  S
O991       Ni993   1.888       .  S
O991       Ni998   1.912       .  S
O992       Ni993   1.911       .  S
Ni993       O997   1.885       .  S
Ni993       O995   1.895       .  S
O994       Ni999   1.942       .  S
C996        O997   1.262       .  A
C996       C1614   1.477       .  S
O1001     Ni1007   1.940       .  S
O1001      C1022   1.271       .  A
O1002     Ni1025   1.913       .  S
O1002      C1011   1.271       .  A
O1003     Ni1007   1.901       .  S
O1003     Ni1025   1.904       .  S
O1003     Ni1019   1.896       .  S
O1003      H1026   0.966       .  S
C1004      O1021   1.276       .  A
C1004      O1013   1.281       .  A
C1004      C1574   1.482       .  S
O1005     Ni1024   1.929       .  S
O1005      C1011   1.273       .  A
O1006     Ni1024   1.924       .  S
O1006      C1008   1.269       .  A
Ni1007     O1010   1.914       .  S
Ni1007     O1012   1.894       .  S
C1008      O1018   1.263       .  A
C1008      C1534   1.480       .  S
O1009     Ni1025   1.915       .  S
O1009      C1015   1.278       .  A
O1010      C1015   1.276       .  A
C1011      C1584   1.470       .  S
O1012      C1014   1.268       .  A
O1013     Ni1024   1.939       .  S
C1014      O1020   1.278       .  A
C1014      C1557   1.477   1_545  S
C1015      C1564   1.472       .  S
H1016      O1017   0.967       .  S
O1017     Ni1025   1.904       .  S
O1017     Ni1019   1.882       .  S
O1017     Ni1024   1.911       .  S
O1018     Ni1019   1.910       .  S
Ni1019     O1023   1.879       .  S
Ni1019     O1021   1.896       .  S
O1020     Ni1025   1.952       .  S
C1022      O1023   1.261       .  A
C1022      C1544   1.469   1_455  S
O1027     Ni1033   1.930       .  S
O1027      C1048   1.273       .  A
O1028     Ni1051   1.886       .  S
O1028      C1037   1.261       .  A
O1029     Ni1033   1.912       .  S
O1029     Ni1051   1.888       .  S
O1029     Ni1045   1.907       .  S
O1029      H1052   0.967       .  S
C1030      O1047   1.277       .  A
C1030      O1039   1.275       .  A
C1030      C1567   1.474       .  S
O1031     Ni1050   1.943       .  S
O1031      C1037   1.272       .  A
O1032     Ni1050   1.892       .  S
O1032      C1034   1.269       .  A
Ni1033     O1036   1.934       .  S
Ni1033     O1038   1.926       .  S
C1034      O1044   1.276       .  A
C1034      C1514   1.469   1_565  S
O1035     Ni1051   1.906       .  S
O1035      C1041   1.275       .  A
O1036      C1041   1.280       .  A
C1037      C1527   1.471   1_655  S
O1038      C1040   1.269       .  A
O1039     Ni1050   1.915       .  S
C1040      O1046   1.263       .  A
C1040      C1504   1.483       .  S
C1041      C1617   1.483       .  S
H1042      O1043   0.966       .  S
O1043     Ni1051   1.901       .  S
O1043     Ni1045   1.911       .  S
O1043     Ni1050   1.907       .  S
O1044     Ni1045   1.943       .  S
Ni1045     O1049   1.923       .  S
Ni1045     O1047   1.916       .  S
O1046     Ni1051   1.904       .  S
C1048      O1049   1.273       .  A
C1048      C1667   1.476       .  S
O1053     Ni1059   1.946       .  S
O1053      C1074   1.272       .  A
O1054     Ni1077   1.922       .  S
O1054      C1063   1.273       .  A
O1055     Ni1059   1.906       .  S
O1055     Ni1077   1.910       .  S
O1055     Ni1071   1.896       .  S
O1055      H1078   0.966       .  S
C1056      O1073   1.273       .  A
C1056      O1065   1.281       .  A
C1056      C1524   1.484       .  S
O1057     Ni1076   1.936       .  S
O1057      C1063   1.276       .  A
O1058     Ni1076   1.932       .  S
O1058      C1060   1.271       .  A
Ni1059     O1062   1.916       .  S
Ni1059     O1064   1.897       .  S
C1060      O1070   1.262       .  A
C1060      C1597   1.485       .  S
O1061     Ni1077   1.919       .  S
O1061      C1067   1.278       .  A
O1062      C1067   1.276       .  A
C1063      C1554   1.480       .  S
O1064      C1066   1.269       .  A
O1065     Ni1076   1.941       .  S
C1066      O1072   1.276       .  A
C1066      C1727   1.472       .  S
C1067      C1497   1.483       .  S
H1068      O1069   0.967       .  S
O1069     Ni1077   1.904       .  S
O1069     Ni1071   1.888       .  S
O1069     Ni1076   1.911       .  S
O1070     Ni1071   1.903       .  S
Ni1071     O1075   1.878       .  S
Ni1071     O1073   1.897       .  S
O1072     Ni1077   1.942       .  S
C1074      O1075   1.258       .  A
C1074      C1487   1.470       .  S
O1079     Ni1085   1.927       .  S
O1079      C1100   1.273       .  A
O1080      C1089   1.261       .  A
O1081     Ni1085   1.907       .  S
O1081     Ni1103   1.886   1_556  S
O1081     Ni1097   1.906       .  S
O1081      H1104   0.967       .  S
C1082      O1099   1.279       .  A
C1082      O1091   1.277       .  A
C1082      C1494   1.482       .  S
O1083      C1089   1.272       .  A
O1084     Ni1102   1.897       .  S
O1084      C1086   1.269       .  A
Ni1085     O1090   1.921       .  S
C1086      O1096   1.277       .  A
O1087      C1093   1.276       .  A
O1088      C1093   1.281       .  A
C1089      C1717   1.468       .  S
O1090      C1092   1.268       .  A
O1091     Ni1102   1.916       .  S
C1092      O1098   1.263       .  A
C1092      C1647   1.480       .  S
C1093      C1464   1.485       .  S
H1094      O1095   0.966       .  S
O1095     Ni1103   1.898   1_556  S
O1095     Ni1097   1.905       .  S
O1095     Ni1102   1.901       .  S
O1096     Ni1097   1.945       .  S
Ni1097     O1101   1.922       .  S
Ni1097     O1099   1.920       .  S
O1098     Ni1103   1.909   1_556  S
C1100      O1101   1.273       .  A
C1100      C1474   1.474       .  S
O1105     Ni1111   1.926       .  S
O1105      C1126   1.274       .  A
O1106     Ni1129   1.876       .  S
O1106      C1115   1.260       .  A
O1107     Ni1111   1.905       .  S
O1107     Ni1129   1.882       .  S
O1107     Ni1123   1.903       .  S
O1107      H1130   0.967       .  S
C1108      O1125   1.278       .  A
C1108      O1117   1.278       .  A
C1108      C1427   1.482       .  S
O1109     Ni1128   1.949       .  S
O1109      C1115   1.274       .  A
O1110     Ni1128   1.900       .  S
O1110      C1112   1.270       .  A
Ni1111     O1114   1.934       .  S
Ni1111     O1116   1.927       .  S
C1112      O1122   1.278       .  A
C1112      C1414   1.477       .  S
O1113     Ni1129   1.901       .  S
O1113      C1119   1.275       .  A
O1114      C1119   1.281       .  A
C1115      C1577   1.471       .  S
O1116      C1118   1.269       .  A
O1117     Ni1128   1.918       .  S
C1118      O1124   1.265       .  A
C1118      C1404   1.487       .  S
C1119      C1434   1.483       .  S
H1120      O1121   0.966       .  S
O1121     Ni1129   1.894       .  S
O1121     Ni1123   1.904       .  S
O1121     Ni1128   1.898       .  S
O1122     Ni1123   1.947       .  S
Ni1123     O1127   1.920       .  S
Ni1123     O1125   1.918       .  S
O1124     Ni1129   1.916       .  S
C1126      O1127   1.272       .  A
C1126      C1444   1.473       .  S
O1131     Ni1137   1.949       .  S
O1132     Ni1155   1.924       .  S
O1132      C1141   1.273       .  A
O1133     Ni1137   1.907       .  S
O1133     Ni1155   1.910       .  S
O1133     Ni1149   1.899       .  S
O1133      H1156   0.966       .  S
C1134      O1151   1.275       .  A
C1134      C1747   1.487       .  S
O1135     Ni1154   1.931       .  S
O1135      C1141   1.274       .  A
O1136     Ni1154   1.922       .  S
O1136      C1138   1.268       .  A
Ni1137     O1140   1.919       .  S
Ni1137     O1142   1.897       .  S
C1138      O1148   1.263       .  A
C1138      C1387   1.480       .  S
O1139     Ni1155   1.914       .  S
O1139      C1145   1.276       .  A
O1140      C1145   1.276       .  A
C1141      C1697   1.479       .  S
O1142      C1144   1.269       .  A
O1143     Ni1154   1.941       .  S
C1144      O1150   1.276       .  A
C1144      C1587   1.467       .  S
C1145      C1424   1.480       .  S
H1146      O1147   0.967       .  S
O1147     Ni1155   1.906       .  S
O1147     Ni1149   1.885       .  S
O1147     Ni1154   1.911       .  S
O1148     Ni1149   1.905       .  S
Ni1149     O1153   1.875       .  S
O1150     Ni1155   1.939       .  S
C1152      C1397   1.478       .  S
O1157     Ni1163   1.941       .  S
O1157      C1178   1.271       .  A
O1158     Ni1181   1.921       .  S
O1158      C1167   1.273       .  A
O1159     Ni1163   1.897       .  S
O1159     Ni1181   1.906       .  S
O1159     Ni1175   1.894       .  S
O1159      H1182   0.966       .  S
C1160      O1177   1.273       .  A
C1160      O1169   1.281       .  A
C1160      C1657   1.480       .  S
O1161     Ni1180   1.930       .  S
O1161      C1167   1.274       .  A
O1162     Ni1180   1.924       .  S
O1162      C1164   1.269       .  A
Ni1163     O1166   1.912       .  S
Ni1163     O1168   1.891       .  S
C1164      O1174   1.263       .  A
C1164      C1687   1.486       .  S
O1165     Ni1181   1.915       .  S
O1165      C1171   1.278       .  A
O1166      C1171   1.276       .  A
C1167      C1607   1.477       .  S
O1168      C1170   1.269       .  A
O1169     Ni1180   1.940       .  S
C1170      O1176   1.278       .  A
C1170      C1367   1.474       .  S
C1171      C1377   1.479       .  S
H1172      O1173   0.967       .  S
O1173     Ni1181   1.904       .  S
O1173     Ni1175   1.888       .  S
O1173     Ni1180   1.911       .  S
O1174     Ni1175   1.907       .  S
Ni1175     O1179   1.888       .  S
Ni1175     O1177   1.891       .  S
O1176     Ni1181   1.947       .  S
C1178      O1179   1.261       .  A
C1178      C1467   1.466       .  S
O1183     Ni1189   1.926       .  S
O1183      C1204   1.272       .  A
O1184     Ni1207   1.873       .  S
O1184      C1193   1.261       .  A
O1185     Ni1189   1.906       .  S
O1185     Ni1207   1.883       .  S
O1185     Ni1201   1.903       .  S
O1185      H1208   0.968       .  S
C1186      O1203   1.277       .  A
C1186      O1195   1.276       .  A
C1186      C1374   1.480       .  S
O1187     Ni1206   1.950       .  S
O1187      C1193   1.274       .  A
O1188     Ni1206   1.899       .  S
O1188      C1190   1.270       .  A
Ni1189     O1192   1.936       .  S
Ni1189     O1194   1.920       .  S
C1190      O1200   1.275       .  A
C1190      C1477   1.470       .  S
O1191     Ni1207   1.900       .  S
O1191      C1197   1.275       .  A
O1192      C1197   1.280       .  A
C1193      C1354   1.480       .  S
O1194      C1196   1.268       .  A
O1195     Ni1206   1.918       .  S
C1196      O1202   1.265       .  A
C1196      C1734   1.483       .  S
C1197      C1394   1.477       .  S
H1198      O1199   0.966       .  S
O1199     Ni1207   1.892       .  S
O1199     Ni1201   1.906       .  S
O1199     Ni1206   1.905       .  S
O1200     Ni1201   1.938       .  S
Ni1201     O1205   1.922       .  S
Ni1201     O1203   1.911       .  S
O1202     Ni1207   1.911       .  S
C1204      O1205   1.272       .  A
C1204      C1417   1.476       .  S
O1209     Ni1215   1.933       .  S
O1209      C1230   1.275       .  A
O1210     Ni1233   1.875       .  S
O1210      C1219   1.260       .  A
O1211     Ni1215   1.909       .  S
O1211     Ni1233   1.884       .  S
O1211     Ni1227   1.904       .  S
O1211      H1234   0.968       .  S
C1212      O1229   1.278       .  A
C1212      O1221   1.275       .  A
C1212      C1347   1.479       .  S
O1213     Ni1232   1.939       .  S
O1213      C1219   1.270       .  A
O1214     Ni1232   1.900       .  S
O1214      C1216   1.269       .  A
Ni1215     O1218   1.940       .  S
Ni1215     O1220   1.925       .  S
C1216      O1226   1.276       .  A
C1216      C1787   1.476       .  S
O1217     Ni1233   1.891       .  S
O1217      C1223   1.272       .  A
O1218      C1223   1.281       .  A
C1219      C1337   1.468       .  S
O1220      C1222   1.270       .  A
O1221     Ni1232   1.911       .  S
C1222      O1228   1.266       .  A
C1222      C1407   1.489       .  S
C1223      C1547   1.479       .  S
H1224      O1225   0.966       .  S
O1225     Ni1233   1.893       .  S
O1225     Ni1227   1.904       .  S
O1225     Ni1232   1.905       .  S
O1226     Ni1227   1.946       .  S
Ni1227     O1231   1.913       .  S
Ni1227     O1229   1.917       .  S
O1228     Ni1233   1.919       .  S
C1230      O1231   1.271       .  A
C1230      C1517   1.473       .  S
O1235     Ni1241   1.947       .  S
O1236     Ni1259   1.918       .  S
O1236      C1245   1.271       .  A
O1237     Ni1241   1.904       .  S
O1237     Ni1259   1.906       .  S
O1237     Ni1253   1.897       .  S
O1237      H1260   0.966       .  S
C1238      O1255   1.276   1_554  A
C1238      C1357   1.470   1_554  S
O1239     Ni1258   1.925       .  S
O1239      C1245   1.272       .  A
O1240     Ni1258   1.922       .  S
O1240      C1242   1.268       .  A
Ni1241     O1244   1.924       .  S
Ni1241     O1246   1.898       .  S
C1242      O1252   1.264       .  A
C1242      C1384   1.479       .  S
O1243     Ni1259   1.904       .  S
O1243      C1249   1.275       .  A
O1244      C1249   1.277       .  A
C1245      C1364   1.475       .  S
O1246      C1248   1.270       .  A
O1247     Ni1258   1.934       .  S
C1248      O1254   1.276       .  A
C1248      C1324   1.471       .  S
C1249      C1344   1.479       .  S
H1250      O1251   0.966       .  S
O1251     Ni1259   1.903       .  S
O1251     Ni1253   1.881       .  S
O1251     Ni1258   1.908       .  S
O1252     Ni1253   1.908       .  S
Ni1253     O1257   1.880       .  S
O1254     Ni1259   1.942       .  S
C1256      C1777   1.482       .  S
O1261     Ni1267   1.929       .  S
O1261      C1282   1.274       .  A
O1262     Ni1285   1.879       .  S
O1262      C1271   1.261   1_455  A
O1263     Ni1267   1.907       .  S
O1263     Ni1285   1.888       .  S
O1263     Ni1279   1.904       .  S
O1263      H1286   0.968       .  S
C1264      O1281   1.278       .  A
C1264      O1273   1.276       .  A
C1264      C1317   1.481       .  S
O1265     Ni1284   1.946       .  S
O1265      C1271   1.272   1_455  A
O1266     Ni1284   1.897       .  S
O1266      C1268   1.269       .  A
Ni1267     O1270   1.934       .  S
Ni1267     O1272   1.921       .  S
C1268      O1278   1.275       .  A
C1268      C1447   1.471       .  S
O1269     Ni1285   1.900       .  S
O1269      C1275   1.274       .  A
O1270      C1275   1.280       .  A
C1271      C1627   1.474       .  S
O1272      C1274   1.269       .  A
O1273     Ni1284   1.911       .  S
C1274      O1280   1.264       .  A
C1274      C1507   1.483       .  S
C1275      C1484   1.481       .  S
H1276      O1277   0.966       .  S
O1277     Ni1285   1.894       .  S
O1277     Ni1279   1.911       .  S
O1277     Ni1284   1.905       .  S
O1278     Ni1279   1.939       .  S
Ni1279     O1283   1.923       .  S
Ni1279     O1281   1.921       .  S
O1280     Ni1285   1.911       .  S
C1282      O1283   1.272       .  A
C1282      C1454   1.477       .  S
O1287     Ni1293   1.941       .  S
O1287      C1308   1.271       .  A
O1288     Ni1311   1.919       .  S
O1288      C1297   1.272       .  A
O1289     Ni1293   1.905       .  S
O1289     Ni1311   1.905       .  S
O1289     Ni1305   1.893       .  S
O1289      H1312   0.966       .  S
C1290      O1307   1.270       .  A
C1290      O1299   1.280       .  A
C1290      C1334   1.475       .  S
O1291     Ni1310   1.932       .  S
O1291      C1297   1.274       .  A
O1292     Ni1310   1.920       .  S
O1292      C1294   1.268       .  A
Ni1293     O1296   1.912       .  S
Ni1293     O1298   1.899       .  S
C1294      O1304   1.266       .  A
C1294      C1537   1.482       .  S
O1295     Ni1311   1.919       .  S
O1295      C1301   1.279       .  A
O1296      C1301   1.276       .  A
C1297      C1327   1.473       .  S
O1298      C1300   1.269       .  A
O1299     Ni1310   1.939       .  S
C1300      O1306   1.274       .  A
C1300      C1637   1.472       .  S
C1301      C1314   1.481       .  S
H1302      O1303   0.966       .  S
O1303     Ni1311   1.906       .  S
O1303     Ni1305   1.889       .  S
O1303     Ni1310   1.913       .  S
O1304     Ni1305   1.913       .  S
Ni1305     O1309   1.885       .  S
Ni1305     O1307   1.885       .  S
O1306     Ni1311   1.939       .  S
C1308      O1309   1.261       .  A
C1308      C1437   1.468   1_655  S
C1313      C1314   1.410   1_455  A
C1313      H1320   1.083       .  S
C1315      C1316   1.392       .  A
C1315      F1322   1.358       .  S
C1316      C1317   1.408   1_655  A
C1316      H1321   1.083       .  S
C1317      C1318   1.407       .  A
C1323      C1328   1.405   1_554  A
C1323      H1330   1.083   1_554  S
C1324      C1325   1.404       .  A
C1325      C1326   1.396       .  A
C1325      F1332   1.358       .  S
C1326      H1331   1.084       .  S
C1327      C1328   1.407       .  A
C1328      F1329   1.357       .  S
C1333      C1334   1.407       .  A
C1333      C1338   1.402       .  A
C1333      H1340   1.083       .  S
C1334      C1335   1.409       .  A
C1335      C1336   1.383       .  A
C1335      F1342   1.359       .  S
C1336      C1337   1.400       .  A
C1336      H1341   1.084       .  S
C1337      C1338   1.406       .  A
C1338      F1339   1.357       .  S
C1343      C1344   1.404       .  A
C1343      C1348   1.391       .  A
C1343      H1350   1.083       .  S
C1344      C1345   1.410       .  A
C1345      C1346   1.397       .  A
C1345      F1352   1.357       .  S
C1346      C1347   1.405       .  A
C1346      H1351   1.083       .  S
C1347      C1348   1.410       .  A
C1348      F1349   1.358       .  S
C1353      C1354   1.405       .  A
C1353      C1358   1.382       .  A
C1353      H1360   1.083       .  S
C1354      C1355   1.411       .  A
C1355      C1356   1.407       .  A
C1355      F1362   1.357       .  S
C1356      C1357   1.406       .  A
C1356      H1361   1.083       .  S
C1357      C1358   1.402       .  A
C1358      F1359   1.358       .  S
C1363      C1364   1.407       .  A
C1363      C1368   1.406       .  A
C1363      H1370   1.083       .  S
C1364      C1365   1.405       .  A
C1365      C1366   1.391       .  A
C1365      F1372   1.359       .  S
C1366      C1367   1.404       .  A
C1366      H1371   1.084       .  S
C1367      C1368   1.406       .  A
C1368      F1369   1.357       .  S
C1373      C1374   1.404       .  A
C1373      C1378   1.392       .  A
C1373      H1380   1.083       .  S
C1374      C1375   1.411       .  A
C1375      C1376   1.394       .  A
C1375      F1382   1.357       .  S
C1376      C1377   1.404       .  A
C1376      H1381   1.083       .  S
C1377      C1378   1.411       .  A
C1378      F1379   1.358       .  S
C1383      C1384   1.408       .  A
C1383      C1388   1.400       .  A
C1383      H1390   1.083       .  S
C1384      C1385   1.405       .  A
C1385      C1386   1.399       .  A
C1385      F1392   1.358       .  S
C1386      C1387   1.408       .  A
C1386      H1391   1.084       .  S
C1387      C1388   1.405       .  A
C1388      F1389   1.357       .  S
C1393      C1394   1.408       .  A
C1393      C1398   1.405       .  A
C1393      H1400   1.083       .  S
C1394      C1395   1.406       .  A
C1395      C1396   1.387       .  A
C1395      F1402   1.358       .  S
C1396      C1397   1.405       .  A
C1396      H1401   1.084       .  S
C1397      C1398   1.407       .  A
C1398      F1399   1.357       .  S
C1403      C1404   1.404   1_655  A
C1403      C1408   1.403       .  A
C1403      H1410   1.083       .  S
C1404      C1405   1.410       .  A
C1405      C1406   1.403       .  A
C1405      F1412   1.358       .  S
C1406      C1407   1.405   1_455  A
C1406      H1411   1.083       .  S
C1407      C1408   1.412       .  A
C1408      F1409   1.358       .  S
C1413      C1414   1.403       .  A
C1413      C1418   1.393       .  A
C1413      H1420   1.084       .  S
C1414      C1415   1.407       .  A
C1415      C1416   1.407       .  A
C1415      F1422   1.357       .  S
C1416      C1417   1.406       .  A
C1416      H1421   1.083       .  S
C1417      C1418   1.405       .  A
C1418      F1419   1.358       .  S
C1423      C1424   1.407       .  A
C1423      C1428   1.396       .  A
C1423      H1430   1.083       .  S
C1424      C1425   1.406       .  A
C1425      C1426   1.394       .  A
C1425      F1432   1.358       .  S
C1426      C1427   1.407       .  A
C1426      H1431   1.083       .  S
C1427      C1428   1.408       .  A
C1428      F1429   1.358       .  S
C1433      C1434   1.410       .  A
C1433      C1438   1.402       .  A
C1433      H1440   1.083       .  S
C1434      C1435   1.411       .  A
C1435      C1436   1.389       .  A
C1435      F1442   1.358       .  S
C1436      C1437   1.400       .  A
C1436      H1441   1.084       .  S
C1437      C1438   1.403       .  A
C1438      F1439   1.357   1_455  S
C1443      C1444   1.406       .  A
C1443      C1448   1.407       .  A
C1443      H1450   1.083       .  S
C1444      C1445   1.404       .  A
C1445      C1446   1.392       .  A
C1445      F1452   1.358       .  S
C1446      C1447   1.401       .  A
C1446      H1451   1.084       .  S
C1447      C1448   1.407       .  A
C1448      F1449   1.358       .  S
C1453      C1454   1.407       .  A
C1453      C1458   1.408       .  A
C1453      H1460   1.083       .  S
C1455      C1456   1.393   1_554  A
C1455      F1462   1.358       .  S
C1456      H1461   1.084       .  S
C1457      C1458   1.407       .  A
C1458      F1459   1.357       .  S
C1463      C1464   1.408       .  A
C1463      C1468   1.391       .  A
C1463      H1470   1.083       .  S
C1464      C1465   1.413       .  A
C1465      C1466   1.402       .  A
C1465      F1472   1.357       .  S
C1466      C1467   1.401       .  A
C1466      H1471   1.083       .  S
C1467      C1468   1.401       .  A
C1468      F1469   1.358       .  S
C1473      C1474   1.406       .  A
C1473      C1478   1.406       .  A
C1473      H1480   1.083       .  S
C1474      C1475   1.405       .  A
C1475      C1476   1.394       .  A
C1475      F1482   1.358       .  S
C1476      C1477   1.401       .  A
C1476      H1481   1.084       .  S
C1477      C1478   1.406       .  A
C1478      F1479   1.358       .  S
C1483      C1484   1.409       .  A
C1483      C1488   1.401       .  A
C1483      H1490   1.083       .  S
C1484      C1485   1.410       .  A
C1485      C1486   1.390       .  A
C1485      F1492   1.358       .  S
C1486      C1487   1.402       .  A
C1486      H1491   1.084       .  S
C1487      C1488   1.403       .  A
C1488      F1489   1.357       .  S
C1493      C1494   1.408       .  A
C1493      C1498   1.397       .  A
C1493      H1500   1.083       .  S
C1494      C1495   1.407       .  A
C1495      C1496   1.395       .  A
C1495      F1502   1.358       .  S
C1496      C1497   1.408       .  A
C1496      H1501   1.083       .  S
C1497      C1498   1.407       .  A
C1498      F1499   1.358       .  S
C1503      C1504   1.408   1_455  A
C1503      C1508   1.398       .  A
C1503      H1510   1.084       .  S
C1504      C1505   1.406       .  A
C1505      C1506   1.402       .  A
C1505      F1512   1.357       .  S
C1506      C1507   1.409   1_655  A
C1506      H1511   1.083       .  S
C1507      C1508   1.404       .  A
C1508      F1509   1.357       .  S
C1513      C1514   1.402       .  A
C1513      C1518   1.393       .  A
C1513      H1520   1.084       .  S
C1514      C1515   1.405   1_545  A
C1515      C1516   1.404   1_565  A
C1515      F1522   1.357       .  S
C1516      C1517   1.406       .  A
C1516      H1521   1.083       .  S
C1517      C1518   1.404       .  A
C1518      F1519   1.358       .  S
C1523      C1524   1.407       .  A
C1523      C1528   1.391       .  A
C1523      H1530   1.083       .  S
C1524      C1525   1.411       .  A
C1525      C1526   1.402       .  A
C1525      F1532   1.357       .  S
C1526      C1527   1.403       .  A
C1526      H1531   1.083   1_455  S
C1527      C1528   1.404       .  A
C1528      F1529   1.359       .  S
C1533      C1534   1.409   1_655  A
C1533      C1538   1.402       .  A
C1533      H1540   1.084       .  S
C1534      C1535   1.404       .  A
C1535      C1536   1.398   1_455  A
C1535      F1542   1.357       .  S
C1536      C1537   1.407       .  A
C1536      H1541   1.084   1_655  S
C1537      C1538   1.406       .  A
C1538      F1539   1.358       .  S
C1543      C1544   1.400       .  A
C1543      C1548   1.386       .  A
C1543      H1550   1.084       .  S
C1544      C1545   1.405       .  A
C1545      C1546   1.403       .  A
C1545      F1552   1.357       .  S
C1546      C1547   1.408       .  A
C1546      H1551   1.083       .  S
C1547      C1548   1.410       .  A
C1548      F1549   1.358       .  S
C1553      C1554   1.402       .  A
C1553      C1558   1.396       .  A
C1553      H1560   1.084       .  S
C1554      C1555   1.409       .  A
C1555      C1556   1.409       .  A
C1555      F1562   1.357       .  S
C1556      C1557   1.405       .  A
C1556      H1561   1.083   1_565  S
C1557      C1558   1.406       .  A
C1558      F1559   1.358       .  S
C1563      C1568   1.394       .  A
C1563      H1570   1.084       .  S
C1564      C1565   1.408   1_445  A
C1565      C1566   1.395   1_556  A
C1565      F1572   1.358       .  S
C1566      H1571   1.083       .  S
C1567      C1568   1.410   1_665  A
C1568      F1569   1.358       .  S
C1573      C1574   1.405       .  A
C1573      C1578   1.385       .  A
C1573      H1580   1.083       .  S
C1574      C1575   1.412       .  A
C1575      C1576   1.406       .  A
C1575      F1582   1.357       .  S
C1576      C1577   1.404       .  A
C1576      H1581   1.083       .  S
C1577      C1578   1.404       .  A
C1578      F1579   1.359       .  S
C1583      C1588   1.394       .  A
C1583      H1590   1.084       .  S
C1584      C1585   1.406       .  A
C1585      C1586   1.403   1_556  A
C1585      F1592   1.358       .  S
C1586      H1591   1.083   1_554  S
C1587      C1588   1.404       .  A
C1588      F1589   1.358       .  S
C1593      C1594   1.401   1_455  A
C1593      C1598   1.400       .  A
C1593      H1600   1.083       .  S
C1594      C1595   1.412       .  A
C1595      C1596   1.403       .  A
C1595      F1602   1.358       .  S
C1596      C1597   1.403   1_655  A
C1596      H1601   1.083       .  S
C1597      C1598   1.413       .  A
C1598      F1599   1.358       .  S
C1603      C1604   1.405       .  A
C1603      C1608   1.407       .  A
C1603      H1610   1.083       .  S
C1604      C1605   1.405       .  A
C1605      C1606   1.393       .  A
C1605      F1612   1.358       .  S
C1606      C1607   1.403       .  A
C1606      H1611   1.084       .  S
C1607      C1608   1.408       .  A
C1608      F1609   1.357       .  S
C1613      C1614   1.403       .  A
C1613      C1618   1.390       .  A
C1613      H1620   1.084       .  S
C1614      C1615   1.406       .  A
C1615      C1616   1.404       .  A
C1615      F1622   1.357       .  S
C1616      C1617   1.410       .  A
C1616      H1621   1.083       .  S
C1617      C1618   1.409       .  A
C1618      F1619   1.358       .  S
C1623      C1624   1.410       .  A
C1623      C1628   1.406       .  A
C1623      H1630   1.083       .  S
C1624      C1625   1.409       .  A
C1625      C1626   1.386       .  A
C1625      F1632   1.358       .  S
C1626      C1627   1.401       .  A
C1626      H1631   1.084       .  S
C1627      C1628   1.406       .  A
C1628      F1629   1.357       .  S
C1633      C1634   1.402       .  A
C1633      C1638   1.395       .  A
C1633      H1640   1.084       .  S
C1634      C1635   1.407       .  A
C1635      C1636   1.405       .  A
C1635      F1642   1.357       .  S
C1636      C1637   1.405       .  A
C1636      H1641   1.083       .  S
C1637      C1638   1.404       .  A
C1638      F1639   1.358       .  S
C1643      C1644   1.402       .  A
C1643      C1648   1.399       .  A
C1643      H1650   1.083       .  S
C1644      C1645   1.410       .  A
C1645      C1646   1.400       .  A
C1645      F1652   1.358       .  S
C1646      C1647   1.402       .  A
C1646      H1651   1.083       .  S
C1647      C1648   1.411       .  A
C1648      F1649   1.358       .  S
C1653      C1654   1.400       .  A
C1653      C1658   1.385       .  A
C1653      H1660   1.084       .  S
C1654      C1655   1.405       .  A
C1655      C1656   1.405       .  A
C1655      F1662   1.357       .  S
C1656      C1657   1.409       .  A
C1656      H1661   1.083       .  S
C1657      C1658   1.410       .  A
C1658      F1659   1.358       .  S
C1663      H1670   1.084       .  S
C1664      C1665   1.405       .  A
C1665      C1666   1.406       .  A
C1665      F1672   1.357       .  S
C1666      C1667   1.406       .  A
C1666      H1671   1.083       .  S
C1667      C1668   1.404       .  A
C1673      C1674   1.406       .  A
C1673      C1678   1.394       .  A
C1673      H1680   1.083       .  S
C1674      C1675   1.406       .  A
C1675      C1676   1.393       .  A
C1675      F1682   1.358       .  S
C1676      C1677   1.406       .  A
C1676      H1681   1.083       .  S
C1677      C1678   1.406       .  A
C1678      F1679   1.358       .  S
C1683      C1684   1.401       .  A
C1683      C1688   1.399       .  A
C1683      H1690   1.083       .  S
C1684      C1685   1.410       .  A
C1685      C1686   1.401       .  A
C1685      F1692   1.358       .  S
C1686      C1687   1.404       .  A
C1686      H1691   1.083       .  S
C1687      C1688   1.413       .  A
C1688      F1689   1.358       .  S
C1693      C1694   1.405       .  A
C1693      C1698   1.408       .  A
C1693      H1700   1.083   1_545  S
C1694      C1695   1.406       .  A
C1695      C1696   1.393       .  A
C1695      F1702   1.359       .  S
C1696      C1697   1.402       .  A
C1696      H1701   1.084       .  S
C1697      C1698   1.409       .  A
C1698      F1699   1.357       .  S
C1703      C1704   1.402       .  A
C1703      C1708   1.388       .  A
C1703      H1710   1.084       .  S
C1704      C1705   1.406       .  A
C1705      C1706   1.405       .  A
C1705      F1712   1.357       .  S
C1706      C1707   1.408       .  A
C1706      H1711   1.083       .  S
C1707      C1708   1.410       .  A
C1708      F1709   1.359       .  S
C1713      C1714   1.406       .  A
C1713      C1718   1.388       .  A
C1713      H1720   1.083       .  S
C1714      C1715   1.412       .  A
C1715      C1716   1.401       .  A
C1715      F1722   1.357       .  S
C1716      C1717   1.402       .  A
C1716      H1721   1.083       .  S
C1717      C1718   1.403       .  A
C1718      F1719   1.359       .  S
C1723      C1724   1.406       .  A
C1723      C1728   1.407       .  A
C1723      H1730   1.083       .  S
C1724      C1725   1.405       .  A
C1725      C1726   1.392       .  A
C1725      F1732   1.358       .  S
C1726      C1727   1.401       .  A
C1726      H1731   1.084       .  S
C1727      C1728   1.407       .  A
C1728      F1729   1.357       .  S
C1733      C1734   1.404       .  A
C1733      C1738   1.400       .  A
C1733      H1740   1.083       .  S
C1734      C1735   1.412       .  A
C1735      C1736   1.398       .  A
C1735      F1742   1.358       .  S
C1736      C1737   1.400       .  A
C1736      H1741   1.083       .  S
C1737      C1738   1.408       .  A
C1738      F1739   1.358       .  S
C1743      C1744   1.405       .  A
C1743      C1748   1.406       .  A
C1743      H1750   1.083       .  S
C1744      C1745   1.404       .  A
C1745      C1746   1.390       .  A
C1745      F1752   1.358       .  S
C1746      C1747   1.407       .  A
C1746      H1751   1.083       .  S
C1747      C1748   1.412       .  A
C1748      F1749   1.357       .  S
C1753      C1754   1.404       .  A
C1753      C1758   1.394       .  A
C1753      H1760   1.084       .  S
C1754      C1755   1.406       .  A
C1755      C1756   1.404       .  A
C1755      F1762   1.357       .  S
C1756      C1757   1.404       .  A
C1756      H1761   1.083       .  S
C1757      C1758   1.405       .  A
C1758      F1759   1.359       .  S
C1763      C1764   1.408   1_565  A
C1763      C1768   1.395       .  A
C1763      H1770   1.083       .  S
C1764      C1765   1.406       .  A
C1765      C1766   1.393   1_545  A
C1765      F1772   1.358       .  S
C1766      C1767   1.407       .  A
C1766      H1771   1.083       .  S
C1767      C1768   1.408       .  A
C1768      F1769   1.358       .  S
C1773      C1774   1.400       .  A
C1773      C1778   1.388       .  A
C1773      H1780   1.084       .  S
C1774      C1775   1.405       .  A
C1775      C1776   1.403       .  A
C1775      F1782   1.357       .  S
C1776      C1777   1.408       .  A
C1776      H1781   1.083       .  S
C1777      C1778   1.412       .  A
C1778      F1779   1.358       .  S
C1783      C1784   1.407       .  A
C1783      C1788   1.408       .  A
C1783      H1790   1.083       .  S
C1784      C1785   1.405       .  A
C1785      C1786   1.397       .  A
C1785      F1792   1.358       .  S
C1786      C1787   1.402       .  A
C1786      H1791   1.084       .  S
C1787      C1788   1.407       .  A
C1788      F1789   1.357       .  S
