geometry optimzed in LAMMPS
_audit_creation_date              2020-11-30 
_audit_creation_method            'lammps2cif' 
_symmetry_space_group_name_H-M    'P1' 
_symmetry_Int_Tables_number       1 
_symmetry_cell_setting            triclinic 
loop_ 
_symmetry_equiv_pos_as_xyz 
  x,y,z 
_cell_length_a                    36.50648800568991 
_cell_length_b                    36.7062240915363 
_cell_length_c                    39.16129815243505 
_cell_angle_alpha                 92.58995104172223 
_cell_angle_beta                  86.4266518767329 
_cell_angle_gamma                 120.15541723356849 
loop_ 
_atom_site_label 
_atom_site_type_symbol 
_atom_site_fract_x 
_atom_site_fract_y 
_atom_site_fract_z 
_atom_site_charge 
O1          O  0.55594810  0.88214868  0.09347819    -0.80960
C2          C  0.42532201  0.81701048  0.19102220     0.98390
O3          O  0.42982378  0.84651177  0.17246724    -0.70080
O4          O  0.50316948  0.90553535  0.17494919    -0.73670
Al5        Al  0.47338826  0.87560937  0.13752058     1.48980
C6          C  0.54113941  0.93195118  0.17188243     0.93640
O7          O  0.54739592  0.84032160  0.18412537    -0.79890
O8          O  0.48578914  0.78276446  0.09787303    -0.73450
Al9        Al  0.55099756  0.86300008  0.13834506     1.90120
O10         O  0.49747061  0.77680443  0.16810467    -0.72520
O11         O  0.41651395  0.78421358  0.11460744    -0.72370
O12         O  0.43554910  0.79039183  0.18047152    -0.78030
O13         O  0.43808996  0.84897633  0.10103093    -0.76240
O14         O  0.49470061  0.84195676  0.13878099    -1.12370
O15         O  0.51455296  0.90970793  0.10131889    -0.71560
C16         C  0.53765224  0.89997996  0.08152009     0.99150
C17         C  0.52538582  0.80041878  0.18928155     0.95550
Al18       Al  0.46116455  0.78736689  0.13975487     1.55560
O19         O  0.56581156  0.92033897  0.15724371    -0.76190
C20         C  0.41176773  0.81062394  0.09892351     0.99720
C21         C  0.52145290  0.78551480  0.09794352     0.94600
O22         O  0.54991408  0.81323928  0.11671688    -0.81510
O23         O  0.37003821  0.46128364  0.08675242    -0.80960
C24         C  0.42706079  0.57408860  0.17904965     0.98390
O25         O  0.44895658  0.58367540  0.15037927    -0.70080
O26         O  0.44822768  0.51831457  0.11998598    -0.73670
Al27       Al  0.42952548  0.55340377  0.10667134     1.48980
C28         C  0.43849385  0.49755570  0.14655013     0.93640
O29         O  0.32311750  0.47139565  0.17666970    -0.79890
O30         O  0.32771603  0.54515922  0.10536420    -0.73450
Al31       Al  0.35084739  0.47341567  0.13087285     1.90120
O32         O  0.30635750  0.51825579  0.16783759    -0.72520
O33         O  0.40189019  0.61446516  0.12939607    -0.72370
O34         O  0.38909352  0.56719943  0.18207866    -0.78030
O35         O  0.42119043  0.59272637  0.08453651    -0.76240
O36         O  0.37901260  0.52754703  0.12673841    -1.12370
O37         O  0.41337746  0.52395562  0.06558980    -0.71560
C38         C  0.39196030  0.48461679  0.06198366     0.99150
C39         C  0.30215770  0.48932214  0.18607936     0.95550
Al40       Al  0.35788646  0.55874640  0.14433060     1.55560
O41         O  0.39888102  0.47427832  0.15531495    -0.76190
C42         C  0.42432546  0.62266940  0.10226355     0.99720
C43         C  0.30446841  0.50704634  0.09439544     0.94600
O44         O  0.30549214  0.47480386  0.10594057    -0.81510
O45         O  0.14932868  0.64701293  0.09162770    -0.80960
C46         C  0.19567297  0.57898597  0.18706462     0.98390
O47         O  0.17962964  0.55616420  0.16096641    -0.70080
O48         O  0.12048868  0.57215628  0.16973148    -0.73670
Al49       Al  0.15157523  0.57260290  0.13073127     1.48980
C50         C  0.09480953  0.58442542  0.16813445     0.93640
O51         O  0.18982096  0.68724632  0.18278466    -0.79890
O52         O  0.25607997  0.67586139  0.10180356    -0.73450
Al53       Al  0.16794936  0.66352169  0.13699447     1.90120
O54         O  0.25260483  0.69391209  0.17076279    -0.72520
O55         O  0.24268793  0.60020890  0.11478978    -0.72370
O56         O  0.22677034  0.61569485  0.18336600    -0.78030
O57         O  0.18090485  0.56778789  0.09151752    -0.76240
O58         O  0.18692951  0.62741891  0.13630245    -1.12370
O59         O  0.11670294  0.57885591  0.09877663    -0.71560
C60         C  0.12726626  0.61004981  0.07980915     0.99150
C61         C  0.22857398  0.70184017  0.19055161     0.95550
Al62       Al  0.24092032  0.64506308  0.14192560     1.55560
O63         O  0.10845202  0.62149688  0.15639672    -0.76190
C64         C  0.21768533  0.57395007  0.09323923     0.99720
C65         C  0.25031342  0.70674587  0.09887486     0.94600
O66         O  0.22000491  0.70842503  0.11554506    -0.81510
O67         O  0.37157730  0.88110641  0.40840572    -0.80960
C68         C  0.42185040  0.78848776  0.32968808     0.98390
O69         O  0.44938565  0.81554769  0.34952572    -0.70080
O70         O  0.45369727  0.88447265  0.33837275    -0.73670
Al71       Al  0.44122930  0.85521296  0.37844867     1.48980
C72         C  0.44793757  0.91464956  0.33582470     0.93640
O73         O  0.34409674  0.83008799  0.31875635    -0.79890
O74         O  0.32614829  0.78098823  0.41346772    -0.73450
Al75       Al  0.36024348  0.85712601  0.36415487     1.90120
O76         O  0.31699696  0.76667014  0.34083850    -0.72520
O77         O  0.39073852  0.76571407  0.40794987    -0.72370
O78         O  0.38525140  0.76286278  0.34098748    -0.78030
O79         O  0.43865223  0.82988693  0.41958529    -0.76240
O80         O  0.38659799  0.82841053  0.37242145    -1.12370
O81         O  0.43867716  0.89784344  0.40865128    -0.71560
C82         C  0.40558954  0.89546194  0.42396792     0.99150
C83         C  0.31991864  0.78990769  0.31606459     0.95550
Al84       Al  0.35650774  0.77305266  0.37634060     1.55560
O85         O  0.41138972  0.90907075  0.34491374    -0.76190
C86         C  0.42425269  0.79137872  0.42247727     0.99720
C87         C  0.29682837  0.78703499  0.40552039     0.94600
O88         O  0.30456820  0.81478821  0.38350589    -0.81510
O89         O  0.55204000  0.64758874  0.40159547    -0.80960
C90         C  0.43891273  0.57559479  0.31089204     0.98390
O91         O  0.42972603  0.55270683  0.33739566    -0.70080
O92         O  0.49875415  0.56100796  0.35238747    -0.73670
Al93       Al  0.46340935  0.57277109  0.37767823     1.48980
C94         C  0.53161046  0.57892352  0.33408986     0.93640
O95         O  0.53843701  0.68475904  0.31441403    -0.79890
O96         O  0.45760456  0.66942781  0.39333288    -0.73450
Al97       Al  0.53931975  0.66114818  0.35919546     1.90120
O98         O  0.48533627  0.69254993  0.32983147    -0.72520
O99         O  0.39619554  0.59414513  0.37056618    -0.72370
O100        O  0.44217935  0.61168898  0.31226312    -0.78030
O101        O  0.42238076  0.57420103  0.40835698    -0.76240
O102        O  0.48474036  0.62497143  0.36357363    -1.12370
O103        O  0.49637981  0.58725262  0.41644146    -0.71560
C104        C  0.53201989  0.61847567  0.42282767     0.99150
C105        C  0.51581739  0.70099296  0.30890865     0.95550
Al106      Al  0.44826964  0.64057430  0.35259202     1.55560
O107        O  0.55270130  0.61954890  0.33287137    -0.76190
C108        C  0.39105914  0.57280015  0.39634890     0.99720
C109        C  0.49404927  0.69848860  0.40199537     0.94600
O110        O  0.52893802  0.70308650  0.38701458    -0.81510
O111        O  0.11565954  0.45971797  0.41654579    -0.80960
C112        C  0.16163210  0.56520311  0.32138687     0.98390
O113        O  0.14339696  0.57072217  0.34899646    -0.70080
O114        O  0.08504791  0.50278999  0.38603840    -0.73670
Al115      Al  0.13922287  0.54726519  0.39461424     1.48980
C116        C  0.07704276  0.48926162  0.35639295     0.93640
O117        O  0.16971314  0.47039843  0.32283898    -0.79890
O118        O  0.23793254  0.54637177  0.39824302    -0.73450
Al119      Al  0.14443000  0.47105416  0.36988714     1.90120
O120        O  0.23213485  0.51855079  0.33517541    -0.72520
O121        O  0.22955323  0.61246970  0.37303381    -0.72370
O122        O  0.19559303  0.56325804  0.32101935    -0.78030
O123        O  0.18317906  0.59514963  0.41404529    -0.76240
O124        O  0.16806583  0.52510434  0.37550987    -1.12370
O125        O  0.13474911  0.52396867  0.43642797    -0.71560
C126        C  0.12127427  0.48555114  0.44155678     0.99150
C127        C  0.20920220  0.48975390  0.31507873     0.95550
Al128      Al  0.21945241  0.55766557  0.35887552     1.55560
O129        O  0.09560314  0.46918492  0.34469627    -0.76190
C130        C  0.21282411  0.62290258  0.39722707     0.99720
C131        C  0.22732834  0.50809007  0.40478973     0.94600
O132        O  0.19369246  0.47524835  0.39305999    -0.81510
O133        O  0.48751828  0.36129015  0.41668651    -0.80960
C134        C  0.60714842  0.42520423  0.32653554     0.98390
O135        O  0.61117372  0.44759377  0.35396516    -0.70080
O136        O  0.53779071  0.43654381  0.38332237    -0.73670
Al137      Al  0.57888715  0.42643878  0.39807532     1.48980
C138        C  0.52369645  0.42784042  0.35433663     0.93640
O139        O  0.50851233  0.31348496  0.33159816    -0.79890
O140        O  0.58093278  0.32995226  0.40656082    -0.73450
Al141      Al  0.50574168  0.34317253  0.37451230     1.90120
O142        O  0.56206104  0.30807431  0.34349869    -0.72520
O143        O  0.64787785  0.40513575  0.38314073    -0.72370
O144        O  0.60595151  0.38986564  0.32689592    -0.78030
O145        O  0.62191329  0.42857616  0.42260816    -0.76240
O146        O  0.55953721  0.37581851  0.38040465    -1.12370
O147        O  0.54776106  0.40758527  0.43911094    -0.71560
C148        C  0.50827258  0.38338943  0.44194283     0.99150
C149        C  0.53244259  0.29821440  0.32432996     0.95550
Al150      Al  0.59598059  0.35984565  0.36660637     1.55560
O151        O  0.50541822  0.38855353  0.34493701    -0.76190
C152        C  0.65287384  0.42825394  0.40877255     0.99720
C153        C  0.54249716  0.30287179  0.41576485     0.94600
O154        O  0.50947782  0.30126749  0.40301694    -0.81510
O155        O  0.91820025  0.54893306  0.39374617    -0.80960
C156        C  0.86091676  0.42989637  0.30147792     0.98390
O157        O  0.87557542  0.42085208  0.32662904    -0.70080
O158        O  0.94108324  0.48876209  0.33935070    -0.73670
Al159      Al  0.89565659  0.45711091  0.36665667     1.48980
C160        C  0.95715842  0.52192294  0.32314792     0.93640
O161        O  0.86104590  0.53549415  0.31108531    -0.79890
O162        O  0.79934764  0.46239644  0.39067731    -0.73450
Al163      Al  0.88873992  0.53634976  0.35303138     1.90120
O164        O  0.79941265  0.48549388  0.32776358    -0.72520
O165        O  0.80416443  0.39444168  0.36395328    -0.72370
O166        O  0.82956791  0.43600276  0.30520733    -0.78030
O167        O  0.85459681  0.41960730  0.39871823    -0.76240
O168        O  0.86660844  0.48122796  0.35602267    -1.12370
O169        O  0.91938599  0.49161270  0.40530107    -0.71560
C170        C  0.92598291  0.52790944  0.41354027     0.99150
C171        C  0.82131564  0.51497981  0.30755077     0.95550
Al172      Al  0.81243107  0.44726877  0.34788193     1.55560
O173        O  0.93987550  0.54496834  0.32447388    -0.76190
C174        C  0.82273375  0.38868091  0.38718350     0.99720
C175        C  0.81081246  0.50073885  0.39867610     0.94600
O176        O  0.84147701  0.53232367  0.38268063    -0.81510
O177        O  0.66375446  0.12458230  0.39662974    -0.80960
C178        C  0.60836176  0.20078392  0.31609437     0.98390
O179        O  0.58084759  0.17471029  0.33729535    -0.70080
O180        O  0.58768318  0.11042180  0.32475948    -0.73670
Al181      Al  0.59114299  0.13952878  0.36556261     1.48980
C182        C  0.59691276  0.08221000  0.32390808     0.93640
O183        O  0.69916609  0.17326554  0.30691161    -0.79890
O184        O  0.69997623  0.22617187  0.40048403    -0.73450
Al185      Al  0.67903140  0.14751745  0.35252380     1.90120
O186        O  0.71693777  0.23636066  0.32842907    -0.72520
O187        O  0.63089971  0.22985310  0.39467790    -0.72370
O188        O  0.64339235  0.22953908  0.32614825    -0.78030
O189        O  0.58520331  0.16458496  0.40675155    -0.76240
O190        O  0.64664606  0.17119994  0.36013562    -1.12370
O191        O  0.59489770  0.10029812  0.39573900    -0.71560
C192        C  0.62707959  0.10506410  0.41097292     0.99150
C193        C  0.72039297  0.21361223  0.30410409     0.95550
Al194      Al  0.67107838  0.22658694  0.36282160     1.55560
O195        O  0.63362336  0.09218027  0.33341444    -0.76190
C196        C  0.59877541  0.20300898  0.41162123     0.99720
C197        C  0.73207552  0.22248394  0.39406988     0.94600
O198        O  0.73001366  0.19449781  0.37252097    -0.81510
O199        O  0.66827854  0.54328429  0.09802483    -0.80960
C200        C  0.60317388  0.43728604  0.19260674     0.98390
O201        O  0.58099746  0.42724970  0.16562366    -0.70080
O202        O  0.58542634  0.49053860  0.13523721    -0.73670
Al203      Al  0.60220608  0.45320717  0.12045432     1.48980
C204        C  0.59597920  0.51550763  0.15996129     0.93640
O205        O  0.70493484  0.53400311  0.18700570    -0.79890
O206        O  0.70263960  0.45732741  0.11105969    -0.73450
Al207      Al  0.68259102  0.53266123  0.14158466     1.90120
O208        O  0.72358436  0.48835101  0.17264270    -0.72520
O209        O  0.62736925  0.39172819  0.14040853    -0.72370
O210        O  0.64064290  0.44285086  0.19215168    -0.78030
O211        O  0.60667614  0.40912745  0.09772505    -0.76240
O212        O  0.65246036  0.47848724  0.13730892    -1.12370
O213        O  0.62162013  0.48036551  0.07823950    -0.71560
C214        C  0.64727240  0.51915270  0.07379933     0.99150
C215        C  0.72669805  0.51697468  0.19272147     0.95550
Al216      Al  0.67187858  0.44732137  0.15235911     1.55560
O217        O  0.63517338  0.53685219  0.16730259    -0.76190
C218        C  0.60382976  0.38096743  0.11575553     0.99720
C219        C  0.72953533  0.49538560  0.10218462     0.94600
O220        O  0.72893721  0.52832459  0.11539002    -0.81510
O221        O  0.48201235  0.11328334  0.09976526    -0.80960
C222        C  0.60883580  0.15891971  0.17554560     0.98390
O223        O  0.58651991  0.12369599  0.15951367    -0.70080
O224        O  0.51463959  0.07293602  0.12017723    -0.73670
Al225      Al  0.56626513  0.12327530  0.11484041     1.48980
C226        C  0.50578697  0.06222551  0.15004562     0.93640
O227        O  0.50727294  0.16286549  0.19279063    -0.79890
O228        O  0.55943984  0.22886742  0.11343810    -0.73450
Al229      Al  0.49730606  0.13705126  0.14693115     1.90120
O230        O  0.56736366  0.22026944  0.18036759    -0.72520
O231        O  0.62026311  0.21501923  0.09370009    -0.72370
O232        O  0.62273040  0.19459658  0.16141067    -0.78030
O233        O  0.62207527  0.15846061  0.10052969    -0.76240
O234        O  0.55091334  0.15838398  0.13306339    -1.12370
O235        O  0.54504119  0.12729881  0.07404095    -0.71560
C236        C  0.50723982  0.12116904  0.07286457     0.99150
C237        C  0.53566436  0.20013423  0.20081105     0.95550
Al238      Al  0.58962524  0.21096258  0.13702833     1.55560
O239        O  0.49530229  0.08540395  0.16844385    -0.76190
C240        C  0.63843977  0.19385761  0.08796968     0.99720
C241        C  0.52072447  0.21793791  0.11625387     0.94600
O242        O  0.49318956  0.18387463  0.13053900    -0.81510
O243        O  0.91067659  0.34822287  0.07555087    -0.80960
C244        C  0.88030234  0.43059320  0.16748702     0.98390
O245        O  0.89822298  0.44849356  0.13878868    -0.70080
O246        O  0.94804987  0.42485328  0.10116970    -0.73670
Al247      Al  0.89553580  0.41999706  0.09481642     1.48980
C248        C  0.95784029  0.42306200  0.13038466     0.93640
O249        O  0.85969905  0.31941474  0.16914942    -0.79890
O250        O  0.79116314  0.32468654  0.09847286    -0.73450
Al251      Al  0.88373297  0.33884519  0.12181849     1.90120
O252        O  0.79871654  0.31273433  0.16250619    -0.72520
O253        O  0.80640881  0.40329792  0.11758948    -0.72370
O254        O  0.84399762  0.39714990  0.17033667    -0.78030
O255        O  0.85448314  0.42869263  0.07735637    -0.76240
O256        O  0.86410147  0.37254826  0.11637972    -1.12370
O257        O  0.89369167  0.39222413  0.05374193    -0.71560
C258        C  0.90724712  0.36661260  0.05006169     0.99150
C259        C  0.82138435  0.30475879  0.17967985     0.95550
Al260      Al  0.81495184  0.36087046  0.13505689     1.55560
O261        O  0.93669312  0.38666609  0.14419804    -0.76190
C262        C  0.82306071  0.42676799  0.09257707     0.99720
C263        C  0.80025246  0.29616367  0.08874109     0.94600
O264        O  0.83207384  0.29419678  0.09988442    -0.81510
O265        O  0.30898283  0.79114471  0.60734758    -0.80960
C266        C  0.43565145  0.81915529  0.67904620     0.98390
O267        O  0.39878748  0.78706166  0.67870896    -0.70080
O268        O  0.31752756  0.75283467  0.66576304    -0.73670
Al269      Al  0.36879055  0.76733450  0.63902508     1.48980
C270        C  0.30983584  0.77556263  0.68625591     0.93640
O271        O  0.39373817  0.89441596  0.65807088    -0.79890
O272        O  0.42905340  0.87385775  0.57555561    -0.73450
Al273      Al  0.35129146  0.84069009  0.63303184     1.90120
O274        O  0.45177423  0.89555538  0.63885946    -0.72520
O275        O  0.43548497  0.81044420  0.58042221    -0.72370
O276        O  0.45835360  0.83328632  0.65131298    -0.78030
O277        O  0.41427584  0.76106965  0.61681331    -0.76240
O278        O  0.38631359  0.82059994  0.62826638    -1.12370
O279        O  0.33872907  0.75033037  0.59966146    -0.71560
C280        C  0.31133455  0.76026184  0.59235053     0.99150
C281        C  0.43451235  0.91150132  0.65698512     0.95550
Al282      Al  0.43956279  0.85094110  0.61273459     1.55560
O283        O  0.32461855  0.81387786  0.67820133    -0.76190
C284        C  0.43609093  0.77939033  0.59044064     0.99720
C285        C  0.39917416  0.87927189  0.56842369     0.94600
O286        O  0.36783305  0.86881337  0.58939155    -0.81510
O287        O  0.53927014  0.70042695  0.60063863    -0.80960
C288        C  0.43455067  0.58216699  0.67648837     0.98390
O289        O  0.43822105  0.61844847  0.67448267    -0.70080
O290        O  0.48684584  0.69904683  0.65621945    -0.73670
Al291      Al  0.45075769  0.64645901  0.63378869     1.48980
C292        C  0.51341051  0.70616310  0.67796261     0.93640
O293        O  0.53836725  0.61386666  0.65972534    -0.79890
O294        O  0.49627254  0.59100143  0.56654332    -0.73450
Al295      Al  0.53924578  0.65822921  0.62976363     1.90120
O296        O  0.50061348  0.56202024  0.62525438    -0.72520
O297        O  0.42242681  0.57490805  0.58035807    -0.72370
O298        O  0.42988298  0.55793878  0.65024003    -0.78030
O299        O  0.39728840  0.60072713  0.61812974    -0.76240
O300        O  0.48528352  0.62702360  0.62300585    -1.12370
O301        O  0.46905330  0.67441690  0.59236294    -0.71560
C302        C  0.50872091  0.70003895  0.58508164     0.99150
C303        C  0.51827374  0.57408054  0.65289603     0.95550
Al304      Al  0.46352734  0.57523144  0.60703124     1.55560
O305        O  0.53537789  0.68831532  0.67258846    -0.76190
C306        C  0.39114452  0.57447777  0.59456645     0.99720
C307        C  0.53539644  0.61664828  0.56304176     0.94600
O308        O  0.55666581  0.63882017  0.58807950    -0.81510
O309        O  0.20195852  0.46552791  0.62375377    -0.80960
C310        C  0.21395663  0.60474694  0.68363497     0.98390
O311        O  0.23598238  0.58769131  0.67671737    -0.70080
O312        O  0.24230420  0.52046503  0.67149390    -0.73670
Al313      Al  0.23558906  0.55683694  0.63903265     1.48980
C314        C  0.21657308  0.49572680  0.69468254     0.93640
O315        O  0.09876010  0.46445274  0.66467083    -0.79890
O316        O  0.11020817  0.50722586  0.60507945    -0.73450
Al317      Al  0.15436031  0.47147081  0.64533684     1.90120
O318        O  0.11972411  0.52948286  0.67690671    -0.72520
O319        O  0.17721011  0.57850293  0.59476872    -0.72370
O320        O  0.18543507  0.60041199  0.66409499    -0.78030
O321        O  0.24186844  0.60041849  0.60912520    -0.76240
O322        O  0.18003846  0.52716382  0.64014854    -1.12370
O323        O  0.23761666  0.52758737  0.60016039    -0.71560
C324        C  0.23014350  0.49046255  0.60201920     0.99150
C325        C  0.08998066  0.49261347  0.67568172     0.95550
Al326      Al  0.15002215  0.55196392  0.63567031     1.55560
O327        O  0.17656870  0.47824996  0.69095053    -0.76190
C328        C  0.21594589  0.60428351  0.59178469     0.99720
C329        C  0.11676173  0.48048923  0.58784995     0.94600
O330        O  0.13424400  0.46265528  0.60100287    -0.81510
O331        O  0.52761856  0.81243661  0.88811753    -0.80960
C332        C  0.44107746  0.85830181  0.81618832     0.98390
O333        O  0.42032484  0.81991656  0.82573910    -0.70080
O334        O  0.46909273  0.78664117  0.81633468    -0.73670
Al335      Al  0.44061199  0.79461229  0.85571246     1.48980
C336        C  0.50634050  0.80157933  0.80390260     0.93640
O337        O  0.54894636  0.91315244  0.83804614    -0.79890
O338        O  0.47767701  0.87664088  0.92790820    -0.73450
Al339      Al  0.53533857  0.86058220  0.86444186     1.90120
O340        O  0.51980427  0.92954821  0.88005220    -0.72520
O341        O  0.40718008  0.84911696  0.89049651    -0.72370
O342        O  0.45772993  0.88904903  0.83711597    -0.78030
O343        O  0.40226158  0.78855379  0.89366580    -0.76240
O344        O  0.48076811  0.84464547  0.86784337    -1.12370
O345        O  0.45891450  0.76775107  0.88320856    -0.71560
C346        C  0.49432498  0.77763056  0.89470382     0.99150
C347        C  0.53883457  0.93924237  0.85168070     0.95550
Al348      Al  0.46633701  0.88278140  0.88275707     1.55560
O349        O  0.53614274  0.83272717  0.81941950    -0.76190
C350        C  0.38642007  0.81169701  0.89919284     0.99720
C351        C  0.51495686  0.88523234  0.93520480     0.94600
O352        O  0.54224702  0.88674029  0.91160878    -0.81510
O353        O  0.30619288  0.47242961  0.89242106    -0.80960
C354        C  0.42616722  0.57684201  0.81295421     0.98390
O355        O  0.38806298  0.56890560  0.81623725    -0.70080
O356        O  0.30796684  0.51679050  0.83713607    -0.73670
Al357      Al  0.35977797  0.55683066  0.85826427     1.48980
C358        C  0.30356363  0.48936614  0.81495629     0.93640
O359        O  0.39466769  0.46234829  0.83318852    -0.79890
O360        O  0.42731840  0.51577247  0.91333127    -0.73450
Al361      Al  0.35039151  0.46965977  0.86147557     1.90120
O362        O  0.45143305  0.52130918  0.84715068    -0.72520
O363        O  0.42996461  0.58550487  0.91019458    -0.72370
O364        O  0.45020490  0.58750530  0.83829445    -0.78030
O365        O  0.40297553  0.60966904  0.87663217    -0.76240
O366        O  0.38210673  0.52465501  0.86560082    -1.12370
O367        O  0.33295464  0.54213291  0.90007720    -0.71560
C368        C  0.30897845  0.50446903  0.90994429     0.99150
C369        C  0.43513169  0.48720673  0.83135178     0.95550
Al370      Al  0.43576613  0.55054484  0.87638875     1.55560
O371        O  0.32437433  0.47059875  0.81839001    -0.76190
C372        C  0.42645541  0.61537003  0.90077006     0.99720
C373        C  0.39790168  0.47955732  0.92151372     0.94600
O374        O  0.36779481  0.45815971  0.90217084    -0.81510
O375        O  0.19421861  0.68514012  0.89086007    -0.80960
C376        C  0.20260679  0.56987609  0.81782451     0.98390
O377        O  0.23489969  0.58911424  0.83622814    -0.70080
O378        O  0.24735537  0.66718808  0.82906203    -0.73670
Al379      Al  0.23976560  0.63259173  0.86805401     1.48980
C380        C  0.22473840  0.67674581  0.81225778     0.93640
O381        O  0.11247095  0.58721806  0.83582906    -0.79890
O382        O  0.14633815  0.56676700  0.92535128    -0.73450
Al383      Al  0.15594889  0.63477648  0.86539271     1.90120
O384        O  0.10025547  0.54297650  0.87392748    -0.72520
O385        O  0.19759708  0.54361960  0.88949563    -0.72370
O386        O  0.16561800  0.54606536  0.83174349    -0.78030
O387        O  0.24320695  0.60443187  0.90838118    -0.76240
O388        O  0.18439464  0.60882237  0.87132016    -1.12370
O389        O  0.24834642  0.67574822  0.89805334    -0.71560
C390        C  0.22983032  0.69664138  0.90325334     0.99150
C391        C  0.09167648  0.54922735  0.84573691     0.95550
Al392      Al  0.15507635  0.55412226  0.87942294     1.55560
O393        O  0.18587031  0.66217014  0.82191811    -0.76190
C394        C  0.22508597  0.56487360  0.91022497     0.99720
C395        C  0.13088754  0.59079894  0.93341525     0.94600
O396        O  0.12593336  0.61255429  0.91074910    -0.81510
O397        O  0.49229119  0.29554786  0.61335464    -0.80960
C398        C  0.60749659  0.41540357  0.68358776     0.98390
O399        O  0.59944008  0.37765465  0.67909760    -0.70080
O400        O  0.54302325  0.29887831  0.66202354    -0.73670
Al401      Al  0.58153797  0.34928537  0.63764402     1.48980
C402        C  0.51471201  0.29148229  0.68501481     0.93640
O403        O  0.48861487  0.38529878  0.67226258    -0.79890
O404        O  0.53707624  0.41636997  0.58774929    -0.73450
Al405      Al  0.49316105  0.34059440  0.64284766     1.90120
O406        O  0.54644560  0.44071885  0.65329187    -0.72520
O407        O  0.60773374  0.42043391  0.58599954    -0.72370
O408        O  0.61443944  0.43945737  0.65829576    -0.78030
O409        O  0.63380503  0.39179949  0.61527948    -0.76240
O410        O  0.54877557  0.37180334  0.63458816    -1.12370
O411        O  0.56084267  0.32144413  0.59658799    -0.71560
C412        C  0.52159279  0.29415977  0.59422656     0.99150
C413        C  0.51373586  0.42547505  0.67194223     0.95550
Al414      Al  0.57433351  0.42514946  0.62246347     1.55560
O415        O  0.49537620  0.31238601  0.68440442    -0.76190
C416        C  0.63858141  0.41701990  0.59255952     0.99720
C417        C  0.50019195  0.38699866  0.58186681     0.94600
O418        O  0.47935835  0.35796406  0.60297811    -0.81510
O419        O  0.83458733  0.52615008  0.60208870    -0.80960
C420        C  0.87172369  0.43261426  0.66733229     0.98390
O421        O  0.83854711  0.43607015  0.67106463    -0.70080
O422        O  0.79811076  0.48003204  0.66285218    -0.73670
Al423      Al  0.81181983  0.44314058  0.63575144     1.48980
C424        C  0.82210631  0.51133847  0.68038600     0.93640
O425        O  0.93463353  0.53366381  0.64777909    -0.79890
O426        O  0.89531457  0.48334448  0.55546421    -0.73450
Al427      Al  0.88487170  0.53110700  0.62459750     1.90120
O428        O  0.94468773  0.49943503  0.60592057    -0.72520
O429        O  0.84572045  0.40955162  0.57478705    -0.72370
O430        O  0.88773637  0.42853786  0.63808060    -0.78030
O431        O  0.80124596  0.38966085  0.61764367    -0.76240
O432        O  0.86222025  0.47712478  0.61779368    -1.12370
O433        O  0.79055779  0.45494527  0.59920203    -0.71560
C434        C  0.80123187  0.49256908  0.59086566     0.99150
C435        C  0.95386678  0.51458036  0.63516825     0.95550
Al436      Al  0.89069334  0.45614111  0.59552650     1.55560
O437        O  0.86098690  0.53076109  0.67132582    -0.76190
C438        C  0.81527564  0.38099266  0.59059228     0.99720
C439        C  0.91200654  0.52273867  0.55349719     0.94600
O440        O  0.91426860  0.54548429  0.57963789    -0.81510
O441        O  0.71167171  0.18296463  0.59713300    -0.80960
C442        C  0.58600896  0.15924090  0.67896401     0.98390
O443        O  0.62378240  0.18994847  0.67829580    -0.70080
O444        O  0.70480303  0.22003105  0.65983478    -0.73670
Al445      Al  0.65529052  0.21080385  0.63771613     1.48980
C446        C  0.71046369  0.19469539  0.67588149     0.93640
O447        O  0.61952638  0.08160663  0.64636301    -0.79890
O448        O  0.59222931  0.11143979  0.56749396    -0.73450
Al449      Al  0.66557678  0.13359371  0.62137549     1.90120
O450        O  0.56464912  0.08389454  0.63003055    -0.72520
O451        O  0.59058882  0.17639440  0.58190828    -0.72370
O452        O  0.56377683  0.14816696  0.65234387    -0.78030
O453        O  0.61269599  0.22256311  0.62238725    -0.76240
O454        O  0.63447082  0.15789718  0.62245058    -1.12370
O455        O  0.68697916  0.22839034  0.59683955    -0.71560
C456        C  0.71402162  0.21721867  0.58718598     0.99150
C457        C  0.57914557  0.06690530  0.64701716     0.95550
Al458      Al  0.58183265  0.13198895  0.60894026     1.55560
O459        O  0.69204955  0.15644110  0.66582905    -0.76190
C460        C  0.59135862  0.20730957  0.59630136     0.99720
C461        C  0.62008878  0.10285875  0.55683397     0.94600
O462        O  0.64875845  0.10782909  0.57630766    -0.81510
O463        O  0.72905181  0.52831323  0.88153145    -0.80960
C464        C  0.59793577  0.44039950  0.81581672     0.98390
O465        O  0.63379701  0.44203874  0.81197501    -0.70080
O466        O  0.71727067  0.48322466  0.82275615    -0.73670
Al467      Al  0.66633407  0.44637009  0.84731634     1.48980
C468        C  0.72450628  0.51304304  0.80429115     0.93640
O469        O  0.63377652  0.53632850  0.83903100    -0.79890
O470        O  0.62760061  0.48630382  0.92987005    -0.73450
Al471      Al  0.68305686  0.53417244  0.86064968     1.90120
O472        O  0.59336222  0.50526756  0.88250431    -0.72520
O473        O  0.60049027  0.41306447  0.90714038    -0.72370
O474        O  0.57742977  0.43531421  0.84508265    -0.78030
O475        O  0.62074729  0.39316152  0.86162693    -0.76240
O476        O  0.65146016  0.48076144  0.86675511    -1.12370
O477        O  0.69901872  0.45667037  0.88468014    -0.71560
C478        C  0.72810102  0.49449888  0.89225727     0.99150
C479        C  0.59609175  0.51785519  0.85315971     0.95550
Al480      Al  0.60287220  0.46062922  0.88931972     1.55560
O481        O  0.70481171  0.53260849  0.81256605    -0.76190
C482        C  0.59732223  0.38423388  0.88796859     0.99720
C483        C  0.65233394  0.52543244  0.93318461     0.94600
O484        O  0.67087497  0.54879235  0.90731904    -0.81510
O485        O  0.48090688  0.18499269  0.87686687    -0.80960
C486        C  0.57425049  0.13181992  0.81338746     0.98390
O487        O  0.59269506  0.17202247  0.81829585    -0.70080
O488        O  0.54358415  0.20470390  0.81080647    -0.73670
Al489      Al  0.57184780  0.20169599  0.84839753     1.48980
C490        C  0.50781112  0.18515675  0.79813279     0.93640
O491        O  0.46982775  0.07498490  0.84100543    -0.79890
O492        O  0.53555849  0.13756342  0.92478708    -0.73450
Al493      Al  0.47761711  0.13338297  0.86032380     1.90120
O494        O  0.49278836  0.07212623  0.88761948    -0.72520
O495        O  0.60540311  0.15389681  0.88534903    -0.72370
O496        O  0.55809046  0.10567080  0.83762109    -0.78030
O497        O  0.61119986  0.21469001  0.88400205    -0.76240
O498        O  0.53236258  0.15345875  0.86356461    -1.12370
O499        O  0.55067699  0.22998149  0.87605718    -0.71560
C500        C  0.51275470  0.22066912  0.88376350     0.99150
C501        C  0.48082419  0.05457140  0.85985450     0.95550
Al502      Al  0.54737386  0.12052106  0.88247454     1.55560
O503        O  0.47880150  0.15171408  0.81274054    -0.76190
C504        C  0.62617429  0.19208632  0.89123630     0.99720
C505        C  0.49812133  0.13069279  0.93289392     0.94600
O506        O  0.46948496  0.11970580  0.91046162    -0.81510
O507        O  0.81939184  0.28525486  0.87292624    -0.80960
C508        C  0.85797613  0.41450043  0.80132158     0.98390
O509        O  0.82428639  0.37879557  0.80281127    -0.70080
O510        O  0.78489977  0.29777736  0.81801492    -0.73670
Al511      Al  0.80255111  0.34969094  0.84297601     1.48980
C512        C  0.80541092  0.28719938  0.79705893     0.93640
O513        O  0.92527423  0.36374080  0.82043364    -0.79890
O514        O  0.90699987  0.40024889  0.90436023    -0.73450
Al515      Al  0.87085740  0.32546846  0.84628518     1.90120
O516        O  0.93407604  0.42428976  0.84002328    -0.72520
O517        O  0.84892365  0.41856808  0.89881470    -0.72370
O518        O  0.87451625  0.43696250  0.82805376    -0.78030
O519        O  0.79923510  0.39666158  0.86337931    -0.76240
O520        O  0.85486558  0.36363779  0.85225544    -1.12370
O521        O  0.78397637  0.32037534  0.88343820    -0.71560
C522        C  0.78995514  0.28983517  0.88906608     0.99150
C523        C  0.94692567  0.40405841  0.82185607     0.95550
Al524      Al  0.88858990  0.41591653  0.86670224     1.55560
O525        O  0.84451305  0.30246052  0.80189372    -0.76190
C526        C  0.81793308  0.41952387  0.88844508     0.99720
C527        C  0.90906030  0.36782283  0.91006033     0.94600
O528        O  0.89811129  0.33830497  0.88831634    -0.81510
C529        C  0.73803713  0.21546077  0.89473520     0.24430
C530        C  0.75605570  0.25585909  0.90961725    -0.23680
C531        C  0.72971125  0.26660204  0.93028469     0.19340
C532        C  0.68610144  0.24463483  0.92582188     0.24370
C533        C  0.66888916  0.20949038  0.90375749    -0.23620
C534        C  0.69432416  0.19248229  0.89124432     0.19270
F535        F  0.67798226  0.15679220  0.87158531    -0.13580
F536        F  0.76277051  0.20240954  0.87718524    -0.15940
F537        F  0.66145822  0.25946670  0.94069646    -0.15950
F538        F  0.74688685  0.30362925  0.94819960    -0.13580
C539        C  0.75437794  0.46395625  0.93164965     0.24430
C540        C  0.76421452  0.49636871  0.90849833    -0.23680
C541        C  0.80185167  0.51198489  0.88809806     0.19340
C542        C  0.82268488  0.48872046  0.88435583     0.24370
C543        C  0.80685240  0.45083590  0.90199243    -0.23620
C544        C  0.77475957  0.44024248  0.92755700     0.19270
F545        F  0.75977243  0.40427183  0.94544764    -0.13580
F546        F  0.71908593  0.44951660  0.95275977    -0.15940
F547        F  0.85477564  0.50015926  0.86025300    -0.15950
F548        F  0.81309328  0.54416793  0.86642986    -0.13580
C549        C  0.53342578  0.32117319  0.86833331     0.24430
C550        C  0.56295256  0.34147226  0.89372004    -0.23680
C551        C  0.55908127  0.32040598  0.92376709     0.19340
C552        C  0.53072005  0.27714757  0.92543248     0.24370
C553        C  0.50755091  0.25545213  0.89669932    -0.23620
C554        C  0.50432543  0.27836169  0.87062106     0.19270
F555        F  0.48045257  0.25798875  0.84339517    -0.13580
F556        F  0.53509476  0.34201638  0.84005354    -0.15940
F557        F  0.53182936  0.25543448  0.95202228    -0.15950
F558        F  0.58586780  0.34044804  0.94946702    -0.13580
C559        C  0.59935297  0.11724187  0.75844999     0.24430
C560        C  0.56631662  0.11579441  0.77847248    -0.23680
C561        C  0.53098616  0.11222241  0.76250212     0.19340
C562        C  0.53470505  0.12331577  0.72831880     0.24370
C563        C  0.57219004  0.13339816  0.70974728    -0.23620
C564        C  0.60088919  0.12371620  0.72382855     0.19270
F565        F  0.63262596  0.12386915  0.70498399    -0.13580
F566        F  0.63206778  0.11676894  0.77275334    -0.15940
F567        F  0.50380553  0.12749535  0.71459641    -0.15950
F568        F  0.49395783  0.10014283  0.78005413    -0.13580
C569        C  0.77952319  0.22838920  0.70863255     0.24430
C570        C  0.73502186  0.21085648  0.70826928    -0.23680
C571        C  0.71476722  0.21697725  0.73789831     0.19340
C572        C  0.73732933  0.23893641  0.76684198     0.24370
C573        C  0.78207262  0.25812538  0.76712568    -0.23620
C574        C  0.80272353  0.25165738  0.73759314     0.19270
F575        F  0.84554290  0.26935169  0.73601100    -0.13580
F576        F  0.80094620  0.22487642  0.68030677    -0.15940
F577        F  0.71479604  0.24263313  0.79436447    -0.15950
F578        F  0.67289831  0.20412211  0.73822847    -0.13580
C579        C  0.80616758  0.50448643  0.74362188     0.24430
C580        C  0.80397805  0.52114141  0.71287083    -0.23680
C581        C  0.77769735  0.53930372  0.71294679     0.19340
C582        C  0.75401749  0.54007090  0.74304847     0.24370
C583        C  0.75523328  0.52170637  0.77360164    -0.23620
C584        C  0.78319693  0.50541710  0.77342592     0.19270
F585        F  0.78705048  0.48816446  0.80199165    -0.13580
F586        F  0.82765444  0.48346210  0.74410457    -0.15940
F587        F  0.72843283  0.55681824  0.74172814    -0.15950
F588        F  0.77346632  0.55464463  0.68349446    -0.13580
C589        C  0.88254647  0.39575799  0.74696784     0.24430
C590        C  0.87983017  0.42652803  0.76809893    -0.23680
C591        C  0.89380443  0.46623691  0.75541779     0.19340
C592        C  0.90042238  0.47159711  0.72033000     0.24370
C593        C  0.89275765  0.43694475  0.69849846    -0.23620
C594        C  0.88886242  0.40087251  0.71194075     0.19270
F595        F  0.88358318  0.36801114  0.69127777    -0.13580
F596        F  0.87565283  0.35934914  0.75971563    -0.15940
F597        F  0.90654642  0.50801855  0.70784558    -0.15950
F598        F  0.89605598  0.49787105  0.77621408    -0.13580
C599        C  0.76970110  0.32007604  0.55322768     0.24430
C600        C  0.79878246  0.33742357  0.57911779    -0.23680
C601        C  0.81031752  0.31201745  0.59592453     0.19340
C602        C  0.78818918  0.26845763  0.59058617     0.24370
C603        C  0.75260427  0.25034442  0.57035493    -0.23620
C604        C  0.74711952  0.27637347  0.54831122     0.19270
F605        F  0.71362804  0.25927356  0.52774674    -0.13580
F606        F  0.75972045  0.34474915  0.53569332    -0.15940
F607        F  0.79548350  0.24395200  0.61088184    -0.15950
F608        F  0.84009331  0.32896684  0.61990156    -0.13580
C609        C  0.53952955  0.24823449  0.71555838     0.24430
C610        C  0.50835119  0.26017636  0.71281214    -0.23680
C611        C  0.47350457  0.24238442  0.73700507     0.19340
C612        C  0.47066371  0.21466450  0.76299662     0.24370
C613        C  0.50293073  0.20438622  0.76611628    -0.23620
C614        C  0.53720164  0.22192168  0.74170657     0.19270
F615        F  0.57025602  0.21512391  0.74399758    -0.13580
F616        F  0.57426328  0.26368877  0.69375626    -0.15940
F617        F  0.43760753  0.20004851  0.78639113    -0.15950
F618        F  0.44246318  0.25230053  0.73599292    -0.13580
C619        C  0.62263333  0.46865894  0.73034908     0.24430
C620        C  0.59930254  0.42750364  0.71802823    -0.23680
C621        C  0.56388488  0.39792477  0.73784275     0.19340
C622        C  0.55328666  0.40841176  0.76972564     0.24370
C623        C  0.58223169  0.44594846  0.78456881    -0.23620
C624        C  0.61293107  0.47841024  0.76322332     0.19270
F625        F  0.63822091  0.51760629  0.77585421    -0.13580
F626        F  0.65520171  0.49875338  0.71115907    -0.15940
F627        F  0.52082113  0.37823010  0.78891556    -0.15950
F628        F  0.54154963  0.35748891  0.72832654    -0.13580
C629        C  0.54491777  0.26115102  0.55055473     0.24430
C630        C  0.51291071  0.25567595  0.57523156    -0.23680
C631        C  0.49652929  0.22081634  0.59663740     0.19340
C632        C  0.52271678  0.20487018  0.60366167     0.24370
C633        C  0.56208609  0.22011247  0.58580693    -0.23620
C634        C  0.57128648  0.24504312  0.55701247     0.19270
F635        F  0.60764730  0.25722774  0.53769449    -0.13580
F636        F  0.55869877  0.29249529  0.52771328    -0.15940
F637        F  0.51115756  0.17710232  0.62941768    -0.15950
F638        F  0.46167328  0.21056004  0.61746809    -0.13580
C639        C  0.70237121  0.43495997  0.55430658     0.24430
C640        C  0.68096474  0.44738402  0.57862906    -0.23680
C641        C  0.70274696  0.48782196  0.59381227     0.19340
C642        C  0.74692291  0.51189556  0.58975788     0.24370
C643        C  0.76904694  0.49457582  0.57168988    -0.23620
C644        C  0.74639590  0.45984132  0.54948086     0.19270
F645        F  0.76745457  0.44371256  0.53046598    -0.13580
F646        F  0.68154448  0.39682545  0.53827017    -0.15940
F647        F  0.76805174  0.54701270  0.60955466    -0.15950
F648        F  0.68211948  0.50155498  0.61608858    -0.13580
C649        C  0.99837494  0.47063436  0.79296805     0.24430
C650        C  0.99026048  0.43179012  0.80653812    -0.23680
C651        C  0.02321211  0.43240888  0.82320298     0.19340
C652        C  0.05810304  0.47088293  0.83294290     0.24370
C653        C  0.06140929  0.51029279  0.82590727    -0.23620
C654        C  0.03277438  0.50957814  0.80342959     0.19270
F655        F  0.03537239  0.54610164  0.79442152    -0.13580
F656        F  0.96906030  0.47143935  0.77420581    -0.15940
F657        F  0.08675331  0.46876287  0.85188794    -0.15950
F658        F  0.01805948  0.39613712  0.83572155    -0.13580
C659        C  0.54697621  0.52203892  0.80932491     0.24430
C660        C  0.55328972  0.50302829  0.83707488    -0.23680
C661        C  0.51590273  0.46754787  0.85150316     0.19340
C662        C  0.47527416  0.45334084  0.83999070     0.24370
C663        C  0.46832073  0.47735838  0.81759386    -0.23620
C664        C  0.50505852  0.50974817  0.80003625     0.19270
F665        F  0.50017945  0.53327347  0.77698153    -0.13580
F666        F  0.58065106  0.55499386  0.79345542    -0.15940
F667        F  0.44159373  0.42171347  0.85723118    -0.15950
F668        F  0.51687730  0.44744910  0.87926136    -0.13580
C669        C  0.21542854  0.49697996  0.93027012     0.24430
C670        C  0.23680380  0.54164944  0.93304053    -0.23680
C671        C  0.27395328  0.56184825  0.95133743     0.19340
C672        C  0.29410598  0.53913589  0.95813348     0.24370
C673        C  0.28098957  0.50051972  0.94011290    -0.23620
C674        C  0.23787721  0.47604916  0.93439438     0.19270
F675        F  0.22138508  0.43546831  0.92334742    -0.13580
F676        F  0.17577230  0.47460799  0.91831185    -0.15940
F677        F  0.33432342  0.56105160  0.96896706    -0.15950
F678        F  0.29378803  0.60399454  0.95773764    -0.13580
C679        C  0.55277060  0.00860060  0.86475333     0.24430
C680        C  0.54378398  0.97931745  0.83803606    -0.23680
C681        C  0.51665347  0.97910426  0.81313824     0.19340
C682        C  0.49576684  0.00349948  0.81814754     0.24370
C683        C  0.49660573  0.02320246  0.85024726    -0.23620
C684        C  0.52311824  0.02073781  0.87439593     0.19270
F685        F  0.52163736  0.03108220  0.90805349    -0.13580
F686        F  0.58048447  0.01277098  0.88839820    -0.15940
F687        F  0.47325246  0.00556688  0.79279644    -0.15950
F688        F  0.51053086  0.95563264  0.78416107    -0.13580
C689        C  0.28264258  0.73942229  0.94440049     0.24430
C690        C  0.25542811  0.73797125  0.91967824    -0.23680
C691        C  0.27031314  0.77235863  0.89785426     0.19340
C692        C  0.31398484  0.80015704  0.89371999     0.24370
C693        C  0.34227560  0.79411526  0.91224599    -0.23620
C694        C  0.32641808  0.76598283  0.93949476     0.19270
F695        F  0.35323939  0.76131462  0.95898544    -0.13580
F696        F  0.26813531  0.70808948  0.96750582    -0.15940
F697        F  0.32868057  0.82840449  0.86800387    -0.15950
F698        F  0.24428576  0.77315111  0.87495554    -0.13580
C699        C  0.51544044  0.72486402  0.89698317     0.24430
C700        C  0.49526135  0.74496961  0.91371622    -0.23680
C701        C  0.46039143  0.72208673  0.93662887     0.19340
C702        C  0.43922879  0.67819162  0.93549587     0.24370
C703        C  0.45483046  0.65781886  0.91325634    -0.24820
C704        C  0.49491930  0.68099178  0.89654306     0.19270
F705        F  0.51091280  0.66132854  0.87561566    -0.13580
F706        F  0.54965966  0.74662273  0.87531064    -0.15940
F707        F  0.40105561  0.65589662  0.95249987    -0.15950
F708        F  0.44172548  0.74170652  0.95417036    -0.13580
C709        C  0.01922116  0.46182920  0.65107291     0.24430
C710        C  0.04623517  0.48708266  0.67650529    -0.23680
C711        C  0.03774273  0.51753276  0.69308921     0.19340
C712        C  0.00677204  0.52600657  0.68137078     0.24370
C713        C  0.98372639  0.50440873  0.65258492    -0.23620
C714        C  0.98943655  0.47069753  0.63885377     0.19270
F715        F  0.96785540  0.44674970  0.61182856    -0.13580
F716        F  0.02504614  0.43157714  0.63468700    -0.15940
F717        F  0.00146735  0.55697975  0.69679361    -0.15950
F718        F  0.06130163  0.54092748  0.71947923    -0.13580
C719        C  0.25193615  0.62956966  0.73604582     0.24430
C720        C  0.21562882  0.62033057  0.71868312    -0.23680
C721        C  0.17642607  0.60137268  0.73663330     0.19340
C722        C  0.17147821  0.58036705  0.76669505     0.24370
C723        C  0.20701028  0.58446623  0.78247700    -0.23620
C724        C  0.24767643  0.61076760  0.76727844     0.19270
F725        F  0.28327644  0.61728941  0.78194233    -0.13580
F726        F  0.29090320  0.65082566  0.72000229    -0.15940
F727        F  0.13163819  0.55474609  0.77925277    -0.15950
F728        F  0.14161786  0.59689960  0.72213819    -0.13580
C729        C  0.26666765  0.47703371  0.72260256     0.24430
C730        C  0.23433364  0.48765241  0.72589460    -0.23680
C731        C  0.22102489  0.49267027  0.75945240     0.19340
C732        C  0.24239570  0.49183196  0.78825939     0.24370
C733        C  0.27592949  0.48268859  0.78485016    -0.23620
C734        C  0.28551801  0.47258295  0.75157241     0.19270
F735        F  0.31376072  0.45902596  0.74678533    -0.13580
F736        F  0.28011133  0.47062987  0.69113665    -0.15940
F737        F  0.23009765  0.50000389  0.81972234    -0.15950
F738        F  0.18813391  0.49990823  0.76432312    -0.13580
C739        C  0.54341054  0.49911831  0.69571141     0.24430
C740        C  0.50672110  0.45940881  0.68851566    -0.23680
C741        C  0.47055991  0.46040729  0.68067090     0.19340
C742        C  0.47334267  0.49888607  0.67326902     0.24370
C743        C  0.51224472  0.53828196  0.67472861    -0.23620
C744        C  0.54621520  0.53787569  0.68872371     0.19270
F745        F  0.58416861  0.57403114  0.69051951    -0.13580
F746        F  0.57978936  0.50059064  0.70269126    -0.15940
F747        F  0.43872320  0.49610438  0.66004743    -0.15950
F748        F  0.43453944  0.42386902  0.67363343    -0.13580
C749        C  0.48057121  0.73996040  0.71795415     0.24430
C750        C  0.51520418  0.73334320  0.70967599    -0.23680
C751        C  0.54888322  0.75182256  0.73251986     0.19340
C752        C  0.54776433  0.77589295  0.76207261     0.24370
C753        C  0.51240067  0.78135886  0.77040169    -0.23620
C754        C  0.47890851  0.76244927  0.74760589     0.19270
F755        F  0.44345938  0.76535301  0.75403254    -0.13580
F756        F  0.44665484  0.72324615  0.69784230    -0.15940
F757        F  0.58047233  0.79211297  0.78335817    -0.15950
F758        F  0.58290607  0.74650574  0.72646377    -0.13580
C759        C  0.41250618  0.53467419  0.72556278     0.24430
C760        C  0.44178394  0.57177663  0.70973789    -0.23680
C761        C  0.47590541  0.60280166  0.72841187     0.19340
C762        C  0.47455306  0.60228681  0.76348180     0.24370
C763        C  0.44010347  0.56942393  0.77964804    -0.23620
C764        C  0.41276577  0.53301713  0.76083724     0.19270
F765        F  0.38513370  0.49710187  0.77667382    -0.13580
F766        F  0.38194712  0.50234936  0.70761065    -0.15940
F767        F  0.50362861  0.63608025  0.78134938    -0.15950
F768        F  0.50941465  0.63529930  0.71353688    -0.13580
C769        C  0.32873429  0.50464913  0.60922144     0.24430
C770        C  0.34847354  0.53961211  0.58745790    -0.23680
C771        C  0.32722566  0.53963704  0.55889987     0.19340
C772        C  0.28426066  0.50929114  0.55614152     0.24370
C773        C  0.26209222  0.48244642  0.58399898    -0.23620
C774        C  0.28590525  0.47454098  0.60596684     0.19270
F775        F  0.26602057  0.44301820  0.62884338    -0.13580
F776        F  0.35000439  0.50089662  0.63473377    -0.15940
F777        F  0.26226248  0.51363405  0.53149260    -0.15950
F778        F  0.34670924  0.57087470  0.53566174    -0.13580
C779        C  0.46564131  0.98813282  0.67384836     0.24430
C780        C  0.46735521  0.95115895  0.67414023    -0.23680
C781        C  0.50822808  0.95543859  0.67799762     0.19340
C782        C  0.54604813  0.99406224  0.67292980     0.24370
C783        C  0.54415275  0.02994950  0.66636435    -0.23620
C784        C  0.50346873  0.02714101  0.67108420     0.19270
F785        F  0.49954896  0.06174509  0.66848504    -0.13580
F786        F  0.42788518  0.98642009  0.67139708    -0.15940
F787        F  0.58374726  0.99498198  0.67026210    -0.15950
F788        F  0.51213684  0.92086466  0.68026810    -0.13580
C789        C  0.24247290  0.73460565  0.72573391     0.24430
C790        C  0.28718700  0.75646023  0.72055492    -0.23680
C791        C  0.31019578  0.75223499  0.74627297     0.19340
C792        C  0.29006891  0.72813963  0.77588121     0.24370
C793        C  0.24533822  0.70543424  0.78105720    -0.23620
C794        C  0.22194257  0.70996236  0.75555564     0.19270
F795        F  0.17895983  0.68901294  0.75857512    -0.13580
F796        F  0.21836125  0.73549852  0.70114591    -0.15940
F797        F  0.31508393  0.72651291  0.79931323    -0.15950
F798        F  0.35277052  0.76969711  0.74204944    -0.13580
C799        C  0.41704239  0.85379350  0.72699242     0.24430
C800        C  0.44668396  0.84376042  0.71118490    -0.23680
C801        C  0.48283456  0.85381119  0.72848520     0.19340
C802        C  0.48473972  0.86655707  0.76283557     0.24370
C803        C  0.44934572  0.86625908  0.77993953    -0.23620
C804        C  0.41736095  0.86344034  0.76133552     0.19270
F805        F  0.38454619  0.86630467  0.77689344    -0.13580
F806        F  0.38547529  0.85134434  0.71015135    -0.15940
F807        F  0.52027299  0.87786359  0.77937209    -0.15950
F808        F  0.51454329  0.84907183  0.71304832    -0.13580
C809        C  0.23658679  0.71220337  0.58266342     0.24430
C810        C  0.27855944  0.73006940  0.56965247    -0.23680
C811        C  0.28994854  0.70468077  0.54868671     0.19340
C812        C  0.26685989  0.66103239  0.55260482     0.24370
C813        C  0.22967210  0.64328903  0.57343727    -0.23620
C814        C  0.21196086  0.66840411  0.58468631     0.19270
F815        F  0.17463105  0.65151946  0.60337332    -0.13580
F816        F  0.22323420  0.73630019  0.60053039    -0.15940
F817        F  0.28335734  0.63702398  0.53991140    -0.15950
F818        F  0.32891580  0.72216561  0.53248822    -0.13580
C819        C  0.53461641  0.77309995  0.58071654     0.24430
C820        C  0.51782349  0.73464450  0.56268733    -0.23680
C821        C  0.48549732  0.72504562  0.54015138     0.19340
C822        C  0.45807444  0.74069977  0.54822806     0.24370
C823        C  0.46763079  0.76998562  0.57514782    -0.23620
C824        C  0.50789662  0.78935795  0.58892269     0.19270
F825        F  0.51919313  0.82045630  0.61303883    -0.13580
F826        F  0.56991878  0.78690171  0.59880035    -0.15940
F827        F  0.42051487  0.72401902  0.53291077    -0.15950
F828        F  0.47250912  0.69095938  0.51896863    -0.13580
C829        C  0.89529219  0.32380644  0.99713213     0.24430
C830        C  0.92078833  0.36100147  0.01538024    -0.23680
C831        C  0.95028436  0.39744359  0.99770434     0.19340
C832        C  0.94998161  0.39848328  0.96222974     0.24370
C833        C  0.92050792  0.36286274  0.94414038    -0.23620
C834        C  0.89530771  0.32460941  0.96145654     0.19270
F835        F  0.86648472  0.28966964  0.94455957    -0.13580
F836        F  0.86622721  0.28857692  0.01397881    -0.15940
F837        F  0.97545369  0.43539331  0.94595926    -0.15950
F838        F  0.97549417  0.43358013  0.01521060    -0.13580
C839        C  0.52366514  0.16412580  0.02239860     0.24430
C840        C  0.49501069  0.12709888  0.03962386    -0.23680
C841        C  0.46034181  0.09497543  0.02260078     0.19340
C842        C  0.45736134  0.09814926  0.98734984     0.24370
C843        C  0.48905283  0.13345620  0.96953070    -0.23620
C844        C  0.52076082  0.16728067  0.98771403     0.19270
F845        F  0.55257943  0.20098665  0.97096431    -0.13580
F846        F  0.55735767  0.19559307  0.03847198    -0.15940
F847        F  0.42702056  0.06478279  0.97003780    -0.15950
F848        F  0.43241975  0.05896884  0.03903059    -0.13580
C849        C  0.75139026  0.22134438  0.07875854     0.24430
C850        C  0.76870712  0.26253640  0.06740375    -0.23680
C851        C  0.74329167  0.27289757  0.04891060     0.19340
C852        C  0.69923104  0.24822483  0.05247737     0.24370
C853        C  0.68124760  0.21141958  0.07163746    -0.23620
C854        C  0.70747074  0.19556176  0.08086818     0.19270
F855        F  0.69115396  0.15820510  0.09701858    -0.13580
F856        F  0.77569284  0.20935016  0.09447484    -0.15940
F857        F  0.67465947  0.26259174  0.04072337    -0.15950
F858        F  0.76053959  0.31136138  0.03444430    -0.13580
C859        C  0.69196245  0.54892654  0.02075745     0.24430
C860        C  0.65327307  0.53572529  0.03935275    -0.23680
C861        C  0.61800579  0.53038856  0.02270481     0.19340
C862        C  0.62011017  0.53410556  0.98729025     0.24370
C863        C  0.65723640  0.54232952  0.96814135    -0.23620
C864        C  0.69387554  0.55198472  0.98509382     0.19270
F865        F  0.72954991  0.55860441  0.96691064    -0.13580
F866        F  0.72620157  0.55359475  0.03651560    -0.15940
F867        F  0.58430252  0.52431611  0.97118936    -0.15950
F868        F  0.58047770  0.51780484  0.04038308    -0.13580
C869        C  0.77770519  0.44343240  0.05931593     0.24430
C870        C  0.80875661  0.45533168  0.08328565    -0.23680
C871        C  0.82420221  0.49405496  0.10083352     0.19340
C872        C  0.80358490  0.51712908  0.09888541     0.24370
C873        C  0.76595726  0.49964371  0.08129330    -0.23620
C874        C  0.75724673  0.46674780  0.05735303     0.19270
F875        F  0.72247027  0.45123780  0.03832878    -0.13580
F876        F  0.76414695  0.40708838  0.04081524    -0.15940
F877        F  0.81432245  0.55067081  0.12042494    -0.15950
F878        F  0.85600650  0.50694847  0.12276896    -0.13580
C879        C  0.54269241  0.31677914  0.14052937     0.24430
C880        C  0.56902251  0.33744481  0.11181719    -0.23680
C881        C  0.56040847  0.31650197  0.07995385     0.19340
C882        C  0.53107725  0.27323720  0.07836648     0.24370
C883        C  0.51168652  0.25110037  0.10880550    -0.23620
C884        C  0.51209426  0.27421709  0.13837018     0.19270
F885        F  0.49103569  0.25386277  0.16755477    -0.13580
F886        F  0.54846116  0.33704352  0.17122856    -0.15940
F887        F  0.52812837  0.25172016  0.04862216    -0.15950
F888        F  0.58335870  0.33664506  0.05130189    -0.13580
C889        C  0.65820987  0.10212721  0.50123363     0.24430
C890        C  0.62000935  0.09050516  0.52002676    -0.23680
C891        C  0.58251144  0.07467981  0.50196623     0.19340
C892        C  0.58398853  0.07544510  0.46612178     0.24370
C893        C  0.62301367  0.09182255  0.44731230    -0.23620
C894        C  0.65972997  0.10262761  0.46533624     0.19270
F895        F  0.69807682  0.11706926  0.44856359    -0.13580
F896        F  0.69497390  0.11704037  0.51750551    -0.15940
F897        F  0.54746206  0.06302654  0.45017658    -0.15950
F898        F  0.54449260  0.06107435  0.51912700    -0.13580
C899        C  0.57156346  0.15528184  0.26594088     0.24430
C900        C  0.60609856  0.19158127  0.27899552    -0.23680
C901        C  0.64334910  0.21330229  0.25797129     0.19340
C902        C  0.64699867  0.19731485  0.22599210     0.24370
C903        C  0.61233906  0.16120797  0.21271799    -0.23620
C904        C  0.57500497  0.13964435  0.23346603     0.19270
F905        F  0.54045333  0.10552306  0.22136499    -0.13580
F906        F  0.53394287  0.13599520  0.28406980    -0.15940
F907        F  0.68312460  0.21969552  0.20636057    -0.15950
F908        F  0.67607041  0.25108423  0.26773770    -0.13580
C909        C  0.78296387  0.23691333  0.21528439     0.24430
C910        C  0.80204022  0.28122757  0.21300242    -0.23680
C911        C  0.79447745  0.30231386  0.24105470     0.19340
C912        C  0.77000939  0.28071037  0.27048630     0.24370
C913        C  0.74984958  0.23614869  0.27286737    -0.23620
C914        C  0.75735803  0.21475898  0.24464279     0.19270
F915        F  0.73898092  0.17217341  0.24487918    -0.13580
F916        F  0.78735058  0.21465463  0.18832200    -0.15940
F917        F  0.76464546  0.30397153  0.29615418    -0.15950
F918        F  0.80902055  0.34423414  0.23926999    -0.13580
C919        C  0.96041112  0.52975041  0.46666959     0.24430
C920        C  0.93749141  0.54330714  0.44869697    -0.23680
C921        C  0.91601613  0.56165420  0.46687350     0.19340
C922        C  0.91209641  0.56024769  0.50258163     0.24370
C923        C  0.93001356  0.54104106  0.52005966    -0.23620
C924        C  0.95672479  0.52870466  0.50224749     0.19270
F925        F  0.97512887  0.51097175  0.51913462    -0.13580
F926        F  0.98247342  0.51321609  0.44973500    -0.15940
F927        F  0.88595815  0.57198447  0.51951937    -0.15950
F928        F  0.89359329  0.57513358  0.45019333    -0.13580
C929        C  0.90567089  0.41551508  0.21831662     0.24430
C930        C  0.90232563  0.44540960  0.19900067    -0.23680
C931        C  0.90018224  0.47820569  0.21579065     0.19340
C932        C  0.89045124  0.47497215  0.25055418     0.24370
C933        C  0.88346443  0.43934833  0.26840388    -0.23620
C934        C  0.89572980  0.41224542  0.25310091     0.19270
F935        F  0.89275519  0.37961054  0.27052132    -0.13580
F936        F  0.91107683  0.38476449  0.20341734    -0.15940
F937        F  0.88482273  0.50518221  0.26585773    -0.15950
F938        F  0.89916576  0.50857291  0.19798174    -0.13580
C939        C  0.79650160  0.54862250  0.22328682     0.24430
C940        C  0.75167727  0.52507237  0.22415594    -0.23680
C941        C  0.73109350  0.50029232  0.25296201     0.19340
C942        C  0.75362724  0.49998346  0.28059346     0.24370
C943        C  0.79859158  0.52246499  0.27977536    -0.23620
C944        C  0.81968979  0.54744996  0.25072630     0.19270
F945        F  0.86268770  0.56902373  0.24794591    -0.13580
F946        F  0.81798489  0.57085493  0.19497914    -0.15940
F947        F  0.73074334  0.47535264  0.30753235    -0.15950
F948        F  0.68899822  0.47258338  0.25293969    -0.13580
C949        C  0.77115593  0.28446308  0.43121180     0.24430
C950        C  0.77269458  0.25894834  0.40370033    -0.23680
C951        C  0.80262848  0.27834899  0.37662116     0.19340
C952        C  0.82092558  0.32163681  0.37226853     0.24370
C953        C  0.81175407  0.34596252  0.39621445    -0.23620
C954        C  0.78992388  0.32801030  0.42710358     0.19270
F955        F  0.78280327  0.35158618  0.45140910    -0.13580
F956        F  0.74444593  0.26640175  0.45880549    -0.15940
F957        F  0.84447476  0.33902237  0.34314522    -0.15950
F958        F  0.80738503  0.25485794  0.35081986    -0.13580
C959        C  0.49882691  0.41937991  0.49350714     0.24430
C960        C  0.48779704  0.38136120  0.47578451    -0.23680
C961        C  0.46886570  0.34363223  0.49388526     0.19340
C962        C  0.46684348  0.34475714  0.52971905     0.24370
C963        C  0.48419221  0.38377689  0.54753610    -0.23620
C964        C  0.49713047  0.42062164  0.52921356     0.19270
F965        F  0.51263561  0.45844882  0.54576799    -0.13580
F966        F  0.51614420  0.45607148  0.47622602    -0.15940
F967        F  0.45401967  0.30848731  0.54661555    -0.15950
F968        F  0.45837329  0.30664255  0.47720875    -0.13580
C969        C  0.56911185  0.27877637  0.27637653     0.24430
C970        C  0.53048790  0.27211411  0.29246163    -0.23680
C971        C  0.49264262  0.24013947  0.27836323     0.19340
C972        C  0.49374676  0.21524543  0.24966121     0.24370
C973        C  0.53273672  0.22234566  0.23374139    -0.23620
C974        C  0.57018257  0.25505740  0.24756089     0.19270
F975        F  0.60863075  0.26472500  0.23293730    -0.13580
F976        F  0.60673039  0.30959206  0.28802695    -0.15940
F977        F  0.45662886  0.18531739  0.23668243    -0.15950
F978        F  0.45463251  0.23247999  0.29257479    -0.13580
C979        C  0.56290874  0.40283700  0.27582501     0.24430
C980        C  0.59609245  0.43545555  0.29426138    -0.23680
C981        C  0.61817139  0.47546705  0.28017235     0.19340
C982        C  0.61360456  0.47950276  0.24558204     0.24370
C983        C  0.58700450  0.44339636  0.22583140    -0.23620
C984        C  0.55736036  0.40728314  0.24218227     0.19270
F985        F  0.52867385  0.37338549  0.22421472    -0.13580
F986        F  0.53779832  0.36483543  0.28880867    -0.15940
F987        F  0.63986659  0.51678174  0.23047978    -0.15950
F988        F  0.64823943  0.50862670  0.29785097    -0.13580
C989        C  0.51356186  0.22773984  0.42655439     0.24430
C990        C  0.53890352  0.26956451  0.43773385    -0.23680
C991        C  0.57536126  0.27986786  0.45571010     0.19340
C992        C  0.59338714  0.25416790  0.45190498     0.24370
C993        C  0.57310549  0.21677301  0.43267963    -0.23620
C994        C  0.53083437  0.20116854  0.42393191     0.19270
F995        F  0.50965621  0.16393110  0.40663904    -0.13580
F996        F  0.47686370  0.21582730  0.41105038    -0.15940
F997        F  0.63348568  0.26897977  0.46189727    -0.15950
F998        F  0.59940873  0.31954220  0.46852595    -0.13580
C999        C  0.71623041  0.49825583  0.40408234     0.24430
C1000       C  0.69478718  0.45881765  0.41973178    -0.23680
C1001       C  0.71520661  0.44830370  0.44316257     0.19340
C1002       C  0.75895863  0.47382050  0.44583152     0.24370
C1003       C  0.78160883  0.50655057  0.42229783    -0.23620
C1004       C  0.75991726  0.52335499  0.40671907     0.19270
F1005       F  0.78136549  0.55752217  0.38640650    -0.13580
F1006       F  0.69589946  0.50986982  0.38292860    -0.15940
F1007       F  0.77999977  0.45933111  0.46314206    -0.15950
F1008       F  0.69399435  0.41126419  0.46001277    -0.13580
C1009       C  0.07817270  0.45198702  0.49633777     0.24430
C1010       C  0.11735302  0.47420115  0.47782846    -0.23680
C1011       C  0.15441847  0.49662352  0.49590823     0.19340
C1012       C  0.15298619  0.49822177  0.53136129     0.24370
C1013       C  0.11429954  0.47732906  0.55021266    -0.23620
C1014       C  0.07666662  0.45329505  0.53260615     0.19270
F1015       F  0.03889176  0.43191863  0.55029112    -0.13580
F1016       F  0.04162744  0.43107607  0.47947445    -0.15940
F1017       F  0.18975505  0.52204739  0.54739340    -0.15950
F1018       F  0.19216802  0.52007019  0.47887286    -0.13580
C1019       C  0.00600699  0.50141828  0.29304177     0.24430
C1020       C  0.00057660  0.53386039  0.30970129    -0.23680
C1021       C  0.02997363  0.55826827  0.33379750     0.19340
C1022       C  0.05173396  0.54193776  0.34971963     0.24370
C1023       C  0.05296579  0.50529666  0.33689556    -0.23620
C1024       C  0.03188579  0.48718592  0.30651986     0.19270
F1025       F  0.03299458  0.45360307  0.29172026    -0.13580
F1026       F  0.98127545  0.47941372  0.26680801    -0.15940
F1027       F  0.06869622  0.56126041  0.37962040    -0.15950
F1028       F  0.02822193  0.59137512  0.34912104    -0.13580
C1029       C  0.56173655  0.65986229  0.47610253     0.24430
C1030       C  0.54855306  0.62234222  0.45692979    -0.23680
C1031       C  0.54353550  0.58653826  0.47292873     0.19340
C1032       C  0.54636360  0.58667613  0.50835862     0.24370
C1033       C  0.55414794  0.62254820  0.52809469    -0.23620
C1034       C  0.56476584  0.65999555  0.51154408     0.19270
F1035       F  0.57176765  0.69487636  0.53007273    -0.13580
F1036       F  0.56595691  0.69467659  0.46139928    -0.15940
F1037       F  0.53668655  0.55038602  0.52389908    -0.15950
F1038       F  0.53236829  0.55042275  0.45465507    -0.13580
C1039       C  0.50439984  0.46881861  0.31376458     0.24430
C1040       C  0.53317303  0.46689705  0.33454103    -0.23680
C1041       C  0.57009791  0.50651174  0.34240450     0.19340
C1042       C  0.57534362  0.54550258  0.33336663     0.24370
C1043       C  0.54297359  0.54754041  0.31832823    -0.23620
C1044       C  0.50935595  0.50845461  0.30565028     0.19270
F1045       F  0.47725409  0.50804285  0.29003281    -0.13580
F1046       F  0.46878436  0.43285650  0.30499471    -0.15940
F1047       F  0.60845914  0.58138384  0.34569530    -0.15950
F1048       F  0.60004915  0.50903750  0.36252231    -0.13580
C1049       C  0.33091890  0.55580503  0.43754554     0.24430
C1050       C  0.34854852  0.54365609  0.40989189    -0.23680
C1051       C  0.32308621  0.50653906  0.39142544     0.19340
C1052       C  0.27913049  0.48552141  0.39709648     0.24370
C1053       C  0.26085250  0.50368650  0.41940964    -0.23620
C1054       C  0.28697477  0.53550038  0.44264163     0.19270
F1055       F  0.27052901  0.55321768  0.46511680    -0.13580
F1056       F  0.35563835  0.59084534  0.45635983    -0.15940
F1057       F  0.25478758  0.45372759  0.37525568    -0.15950
F1058       F  0.34029651  0.49369238  0.36520395    -0.13580
C1059       C  0.36318407  0.88024351  0.51612051     0.24430
C1060       C  0.40057261  0.89498393  0.53369328    -0.23680
C1061       C  0.43986324  0.91838268  0.51546796     0.19340
C1062       C  0.44176406  0.92248492  0.47986811     0.24370
C1063       C  0.40439748  0.90361059  0.46164756    -0.23620
C1064       C  0.36499848  0.88461994  0.48056795     0.19270
F1065       F  0.32777994  0.86629652  0.46449968    -0.13580
F1066       F  0.32469546  0.85764497  0.53263076    -0.15940
F1067       F  0.48030993  0.94259597  0.46306525    -0.15950
F1068       F  0.47675107  0.93511108  0.53186155    -0.13580
C1069       C  0.56428068  0.00290460  0.32739378     0.24430
C1070       C  0.56117220  0.03766253  0.31821293    -0.23680
C1071       C  0.52021950  0.03008280  0.31057237     0.19340
C1072       C  0.48353390  0.99032159  0.31511116     0.24370
C1073       C  0.48644205  0.95625451  0.32628682    -0.23620
C1074       C  0.52779686  0.96292078  0.33106527     0.19270
F1075       F  0.53323574  0.93138035  0.34180705    -0.13580
F1076       F  0.60228023  0.00796342  0.33524622    -0.15940
F1077       F  0.44507195  0.98560364  0.30942090    -0.15950
F1078       F  0.51486872  0.06179389  0.30048781    -0.13580
C1079       C  0.43353430  0.73719493  0.45074467     0.24430
C1080       C  0.45164476  0.77669790  0.43565444    -0.23680
C1081       C  0.49439711  0.79591147  0.42309691     0.19340
C1082       C  0.51447656  0.77193959  0.41810923     0.24370
C1083       C  0.49235316  0.72930990  0.42670870    -0.23620
C1084       C  0.45486850  0.71442238  0.44781696     0.19270
F1085       F  0.43402651  0.67389582  0.45847151    -0.13580
F1086       F  0.39306452  0.71839548  0.46406723    -0.15940
F1087       F  0.55148327  0.78793549  0.39905925    -0.15950
F1088       F  0.51400265  0.83516109  0.40983932    -0.13580
C1089       C  0.23501556  0.68489330  0.43648526     0.24430
C1090       C  0.22401254  0.66659068  0.40382468    -0.23680
C1091       C  0.21917216  0.68905058  0.37813320     0.19340
C1092       C  0.23168656  0.73147944  0.38349183     0.24370
C1093       C  0.25366555  0.75230527  0.41290207    -0.23620
C1094       C  0.24884551  0.72775972  0.44131754     0.19270
F1095       F  0.26667941  0.74687850  0.47115990    -0.13580
F1096       F  0.23623676  0.66242685  0.46257231    -0.15940
F1097       F  0.23090316  0.75375135  0.35706736    -0.15950
F1098       F  0.20390992  0.67032968  0.34751710    -0.13580
C1099       C  0.10493049  0.55878625  0.99140862     0.24430
C1100       C  0.11981106  0.59390623  0.97023048    -0.23680
C1101       C  0.13002760  0.63308587  0.98551776     0.19340
C1102       C  0.12902838  0.63779134  0.02132615     0.24370
C1103       C  0.11749886  0.60327050  0.04270508    -0.23620
C1104       C  0.10340396  0.56326238  0.02712132     0.19270
F1105       F  0.09098408  0.52870128  0.04628286    -0.13580
F1106       F  0.09363974  0.52018759  0.97751904    -0.15940
F1107       F  0.14190904  0.67682719  0.03492761    -0.15950
F1108       F  0.14462032  0.66771533  0.96595074    -0.13580
C1109       C  0.02511237  0.54382939  0.14256952     0.24430
C1110       C  0.04959137  0.54910036  0.17019032    -0.23680
C1111       C  0.03914416  0.51225886  0.18879675     0.19340
C1112       C  0.00885293  0.47122554  0.17729296     0.24370
C1113       C  0.98844670  0.46573204  0.14663238    -0.23620
C1114       C  0.99668476  0.50348346  0.13021075     0.19270
F1115       F  0.97925705  0.50246776  0.10037565    -0.13580
F1116       F  0.03335597  0.57767006  0.12392725    -0.15940
F1117       F  0.00218997  0.43714362  0.19470527    -0.15950
F1118       F  0.06188641  0.51574299  0.21613393    -0.13580
C1119       C  0.14886470  0.59251314  0.27148070     0.24430
C1120       C  0.14316237  0.55767921  0.28822167    -0.23680
C1121       C  0.14053897  0.52316597  0.26848980     0.19340
C1122       C  0.15683816  0.52902241  0.23479528     0.24370
C1123       C  0.17218165  0.56817524  0.22033044    -0.23620
C1124       C  0.16223457  0.59703250  0.23733991     0.19270
F1125       F  0.16605160  0.63011155  0.22133903    -0.13580
F1126       F  0.14761055  0.62465631  0.28902741    -0.15940
F1127       F  0.15980247  0.49780272  0.21725557    -0.15950
F1128       F  0.12700396  0.48551623  0.28275946    -0.13580
C1129       C  0.26271471  0.76836398  0.22978075     0.24430
C1130       C  0.24678151  0.72467965  0.22422381    -0.23680
C1131       C  0.25559584  0.70379885  0.24908444     0.19340
C1132       C  0.27678388  0.72442941  0.27898789     0.24370
C1133       C  0.29404867  0.76833119  0.28442432    -0.23620
C1134       C  0.28637353  0.78993487  0.25912627     0.19270
F1135       F  0.30179062  0.83203166  0.26262196    -0.13580
F1136       F  0.25712606  0.79068320  0.20600316    -0.15940
F1137       F  0.28193081  0.70097792  0.30200956    -0.15950
F1138       F  0.24581513  0.66328552  0.24375423    -0.13580
C1139       C  0.35678925  0.44344667  0.97459154     0.24430
C1140       C  0.39621326  0.46478848  0.95622535    -0.23680
C1141       C  0.43374570  0.48141889  0.97396564     0.19340
C1142       C  0.43200817  0.48271770  0.00961041     0.24370
C1143       C  0.39278542  0.46715876  0.02780983    -0.23620
C1144       C  0.35515085  0.44480021  0.01036640     0.19270
F1145       F  0.31699290  0.42971517  0.02760218    -0.13580
F1146       F  0.31984913  0.42664416  0.95825984    -0.15940
F1147       F  0.46876522  0.50339733  0.02631060    -0.15950
F1148       F  0.47218483  0.50052810  0.95688154    -0.13580
C1149       C  0.52096973  0.47836665  0.18409151     0.24430
C1150       C  0.55908839  0.51736171  0.17702151    -0.23680
C1151       C  0.55455838  0.55150268  0.16964271     0.19340
C1152       C  0.51452913  0.54543947  0.16309183     0.24370
C1153       C  0.47671932  0.50501503  0.16537469    -0.23620
C1154       C  0.48043705  0.47237786  0.17845158     0.19270
F1155       F  0.44591077  0.43322456  0.18110213    -0.13580
F1156       F  0.52278188  0.44369603  0.19119767    -0.15940
F1157       F  0.51446000  0.57891403  0.15020605    -0.15950
F1158       F  0.58956293  0.58922340  0.16233458    -0.13580
C1159       C  0.20923544  0.45898005  0.25368733     0.24430
C1160       C  0.23082052  0.48227882  0.28290707    -0.23680
C1161       C  0.27580180  0.50349847  0.28004106     0.19340
C1162       C  0.29793366  0.50393891  0.24921198     0.24370
C1163       C  0.27687983  0.48146976  0.21994494    -0.23620
C1164       C  0.23194839  0.45893642  0.22260274     0.19270
F1165       F  0.20993421  0.43833016  0.19464126    -0.13580
F1166       F  0.16623634  0.43753980  0.25463209    -0.15940
F1167       F  0.34044584  0.52980257  0.24735642    -0.15950
F1168       F  0.29929358  0.52590947  0.30691491    -0.13580
C1169       C  0.48368155  0.59407702  0.25814792     0.24430
C1170       C  0.44926816  0.56316389  0.27795527    -0.23680
C1171       C  0.41829787  0.52755647  0.26223605     0.19340
C1172       C  0.41569905  0.52826828  0.22737571     0.24370
C1173       C  0.44276835  0.56539787  0.20897008    -0.23620
C1174       C  0.47958094  0.59636087  0.22349016     0.19270
F1175       F  0.50813697  0.63098564  0.20576107    -0.13580
F1176       F  0.51832416  0.62499434  0.27292924    -0.15940
F1177       F  0.38261228  0.49505977  0.21331536    -0.15950
F1178       F  0.38673608  0.49568559  0.28085947    -0.13580
C1179       C  0.20880833  0.50319364  0.08611873     0.24430
C1180       C  0.22871807  0.54501948  0.07485365    -0.23680
C1181       C  0.26557930  0.56057376  0.05373789     0.19340
C1182       C  0.28646793  0.53746390  0.04961249     0.24370
C1183       C  0.27303422  0.50214447  0.07038474    -0.23620
C1184       C  0.23095890  0.48122234  0.08333754     0.19270
F1185       F  0.21589398  0.44518848  0.10114810    -0.13580
F1186       F  0.17186128  0.48681432  0.10529264    -0.15940
F1187       F  0.32648467  0.55681520  0.03537164    -0.15950
F1188       F  0.28438881  0.60031812  0.04153383    -0.13580
C1189       C  0.55848741  0.88631233  0.02140064     0.24430
C1190       C  0.53974790  0.90483144  0.04341302    -0.23680
C1191       C  0.51695869  0.92109112  0.02835815     0.19340
C1192       C  0.51046415  0.91617905  0.99304020     0.24370
C1193       C  0.52679706  0.89519682  0.97166280    -0.23620
C1194       C  0.55211253  0.88167765  0.98607803     0.19270
F1195       F  0.56832557  0.86123585  0.96640199    -0.13580
F1196       F  0.58099404  0.87014313  0.03413847    -0.15940
F1197       F  0.48745945  0.93146363  0.97978042    -0.15950
F1198       F  0.49926848  0.94021765  0.04792898    -0.13580
C1199       C  0.51251102  0.01471461  0.19370236     0.24430
C1200       C  0.51982014  0.03193774  0.16095283    -0.23680
C1201       C  0.54510682  0.02236712  0.13684495     0.19340
C1202       C  0.56282946  0.99828381  0.14523387     0.24370
C1203       C  0.55044293  0.97626865  0.17566986    -0.23620
C1204       C  0.52698700  0.98656866  0.20075353     0.19270
F1205       F  0.51490193  0.96641488  0.23108471    -0.13580
F1206       F  0.48850791  0.02198249  0.21781075    -0.15940
F1207       F  0.58567276  0.99010139  0.12051368    -0.15950
F1208       F  0.55127956  0.03394523  0.10360261    -0.13580
C1209       C  0.49120645  0.75937215  0.24265651     0.24430
C1210       C  0.52778096  0.77949130  0.22114495    -0.23680
C1211       C  0.56161087  0.77276236  0.22794298     0.19340
C1212       C  0.55855102  0.74731544  0.25592657     0.24370
C1213       C  0.52194007  0.72869840  0.27840861    -0.23620
C1214       C  0.48861942  0.73596274  0.27103857     0.19270
F1215       F  0.45190224  0.71881704  0.29053091    -0.13580
F1216       F  0.45633959  0.76056857  0.23498034    -0.15940
F1217       F  0.59114097  0.74054152  0.26063139    -0.15950
F1218       F  0.59663766  0.78882121  0.20652135    -0.13580
C1219       C  0.38561263  0.77762970  0.24103071     0.24430
C1220       C  0.41596315  0.81644141  0.22750320    -0.23680
C1221       C  0.45023147  0.84447373  0.24730121     0.19340
C1222       C  0.45622047  0.83247234  0.27861388     0.24370
C1223       C  0.42567626  0.79390570  0.29252053    -0.23620
C1224       C  0.39085696  0.76597773  0.27281955     0.19270
F1225       F  0.36281121  0.72651723  0.28374003    -0.13580
F1226       F  0.35385236  0.74903192  0.22152168    -0.15940
F1227       F  0.49248830  0.85829384  0.29480174    -0.15950
F1228       F  0.48086462  0.88181691  0.23489691    -0.13580
C1229       C  0.34421668  0.80969674  0.09869150     0.24430
C1230       C  0.37169330  0.79690572  0.08294334    -0.23680
C1231       C  0.35573397  0.76245548  0.06019541     0.19340
C1232       C  0.31197065  0.73661762  0.05815947     0.24370
C1233       C  0.28462848  0.74358229  0.08102249    -0.23620
C1234       C  0.30043100  0.78295810  0.09769024     0.19270
F1235       F  0.27462479  0.79159105  0.11870711    -0.13580
F1236       F  0.35935920  0.84368370  0.12026955    -0.15940
F1237       F  0.29678527  0.70022510  0.03948781    -0.15950
F1238       F  0.38212660  0.75076316  0.04369055    -0.13580
C1239       C  0.49507235  0.72590108  0.05827005     0.24430
C1240       C  0.52280599  0.74834733  0.08470894    -0.23680
C1241       C  0.52630448  0.72537007  0.11061870     0.19340
C1242       C  0.49300813  0.68475029  0.11703497     0.24370
C1243       C  0.45944252  0.66504552  0.09468099    -0.23620
C1244       C  0.46266366  0.68429390  0.06365788     0.19270
F1245       F  0.43238313  0.66445940  0.04032834    -0.13580
F1246       F  0.49320628  0.74700177  0.03143214    -0.15940
F1247       F  0.49269875  0.66575470  0.14599041    -0.15950
F1248       F  0.55586787  0.74524526  0.13450305    -0.13580
loop_ 
_geom_bond_atom_site_label_1 
_geom_bond_atom_site_label_2 
_geom_bond_distance 
_geom_bond_site_symmetry_2 
_ccdc_geom_bond_type 
O1           C16   1.265       .  A
O1           Al9   1.886       .  S
C2           O12   1.255       .  A
C2            O3   1.267       .  A
C2         C1220   1.447       .  S
O3           Al5   1.923       .  S
O4            C6   1.231       .  A
O4           Al5   1.841       .  S
Al5          O13   1.870       .  S
Al5          O15   1.960       .  S
Al5          O14   1.763       .  S
C6           O19   1.273       .  A
C6         C1203   1.488       .  S
O7           C17   1.287       .  A
O7           Al9   1.980       .  S
O8           C21   1.254       .  A
O8          Al18   1.863       .  S
Al9          O22   1.961       .  S
Al9          O19   2.009       .  S
Al9          O14   1.795       .  S
O10          C17   1.277       .  A
O10         Al18   1.969       .  S
O11          C20   1.258       .  A
O11         Al18   1.908       .  S
O12         Al18   1.825       .  S
O13          C20   1.246       .  A
O14         Al18   1.747       .  S
O15          C16   1.279       .  A
C16        C1190   1.504       .  S
C17        C1210   1.524       .  S
C20        C1230   1.460       .  S
C21          O22   1.273       .  A
C21        C1240   1.460       .  S
O23          C38   1.267       .  A
O23         Al31   1.941       .  S
C24          O34   1.276       .  A
C24          O25   1.290       .  A
C24        C1173   1.451       .  S
O25         Al27   1.963       .  S
O26          C28   1.242       .  A
O26         Al27   1.840       .  S
Al27         O35   1.875       .  S
Al27         O37   1.851       .  S
Al27         O36   1.746       .  S
C28          O41   1.289       .  A
C28        C1153   1.514       .  S
O29          C39   1.266       .  A
O29         Al31   1.989       .  S
O30          C43   1.288       .  A
O30         Al40   1.838       .  S
Al31         O44   1.997       .  S
Al31         O41   2.035       .  S
Al31         O36   1.728       .  S
O32          C39   1.246       .  A
O32         Al40   1.922       .  S
O33          C42   1.250       .  A
O33         Al40   1.948       .  S
O34         Al40   1.842       .  S
O35          C42   1.232       .  A
O36         Al40   1.769       .  S
O37          C38   1.256       .  A
C38        C1143   1.463       .  S
C39        C1163   1.519       .  S
C42        C1243   1.464       .  S
C43          O44   1.304       .  A
C43        C1183   1.465       .  S
O45          C60   1.263       .  A
O45         Al53   1.904       .  S
C46          O56   1.259       .  A
C46          O47   1.262       .  A
C46        C1123   1.468       .  S
O47         Al49   1.911       .  S
O48          C50   1.233       .  A
O48         Al49   1.841       .  S
Al49         O57   1.870       .  S
Al49         O59   1.938       .  S
Al49         O58   1.774       .  S
C50          O63   1.288       .  A
C50        C1110   1.502       .  S
O51          C61   1.288       .  A
O51         Al53   1.988       .  S
O52          C65   1.264       .  A
O52         Al62   1.865       .  S
Al53         O66   1.953       .  S
Al53         O63   2.051       .  S
Al53         O58   1.776       .  S
O54          C61   1.267       .  A
O54         Al62   1.944       .  S
O55          C64   1.270       .  A
O55         Al62   1.945       .  S
O56         Al62   1.886       .  S
O57          C64   1.250       .  A
O58         Al62   1.764       .  S
O59          C60   1.268       .  A
C60        C1103   1.498       .  S
C61        C1130   1.527       .  S
C64        C1180   1.460       .  S
C65          O66   1.276       .  A
C65        C1233   1.470       .  S
O67          C82   1.264       .  A
O67         Al75   1.880       .  S
C68          O78   1.252       .  A
C68          O69   1.275       .  A
C68        C1223   1.466       .  S
O69         Al71   1.933       .  S
O70          C72   1.236       .  A
O70         Al71   1.843       .  S
Al71         O79   1.870       .  S
Al71         O81   1.955       .  S
Al71         O80   1.751       .  S
C72          O85   1.273       .  A
C72        C1073   1.509       .  S
O73          C83   1.286       .  A
O73         Al75   1.969       .  S
O74          C87   1.256       .  A
O74         Al84   1.874       .  S
Al75         O88   1.965       .  S
Al75         O85   2.017       .  S
Al75         O80   1.797       .  S
O76          C83   1.285       .  A
O76         Al84   1.987       .  S
O77          C86   1.260       .  A
O77         Al84   1.931       .  S
O78         Al84   1.823       .  S
O79          C86   1.244       .  A
O80         Al84   1.767       .  S
O81          C82   1.279       .  A
C82        C1063   1.495       .  S
C83        C1133   1.536       .  S
C86        C1080   1.479       .  S
C87          O88   1.273       .  A
C87        C1093   1.466       .  S
O89         C104   1.260       .  A
O89         Al97   1.904       .  S
C90         O100   1.268       .  A
C90          O91   1.284       .  A
C90        C1170   1.440       .  S
O91         Al93   1.942       .  S
O92          C94   1.236       .  A
O92         Al93   1.787       .  S
Al93        O101   1.881       .  S
Al93        O103   1.884       .  S
Al93        O102   1.768       .  S
C94         O107   1.291       .  A
C94        C1043   1.505       .  S
O95         C105   1.269       .  A
O95         Al97   2.000       .  S
O96         C109   1.273       .  A
O96        Al106   1.826       .  S
Al97        O110   2.021       .  S
Al97        O107   2.044       .  S
Al97        O102   1.756       .  S
O98         C105   1.252       .  A
O98        Al106   1.917       .  S
O99         C108   1.253       .  A
O99        Al106   1.924       .  S
O100       Al106   1.823       .  S
O101        C108   1.240       .  A
O102       Al106   1.774       .  S
O103        C104   1.259       .  A
C104       C1030   1.471       .  S
C105       C1213   1.536       .  S
C108       C1050   1.454       .  S
C109        O110   1.302       .  A
C109       C1083   1.478       .  S
O111        C126   1.283       .  A
O111       Al119   2.001       .  S
C112        O122   1.276       .  A
C112        O113   1.296       .  A
C112       C1120   1.452       .  S
O113       Al115   1.982       .  S
O114        C116   1.235       .  A
O114       Al115   1.865       .  S
Al115       O123   1.855       .  S
Al115       O125   1.842       .  S
Al115       O124   1.743       .  S
C116        O129   1.282       .  A
C116       C1023   1.532       .  S
O117        C127   1.269       .  A
O117       Al119   2.013       .  S
O118        C131   1.290       .  A
O118       Al128   1.863       .  S
Al119       O132   1.999       .  S
Al119       O129   2.060       .  S
Al119       O124   1.730       .  S
O120        C127   1.247       .  A
O120       Al128   1.906       .  S
O121        C130   1.244       .  A
O121       Al128   1.916       .  S
O122       Al128   1.835       .  S
O123        C130   1.228       .  A
O124       Al128   1.743       .  S
O125        C126   1.260       .  A
C126       C1010   1.476       .  S
C127       C1160   1.532       .  S
C130       C1090   1.457       .  S
C131        O132   1.306       .  A
C131       C1053   1.465       .  S
O133        C148   1.270       .  A
O133       Al141   1.955       .  S
C134        O144   1.276       .  A
C134        O135   1.292       .  A
C134        C980   1.470       .  S
O135       Al137   1.981       .  S
O136        C138   1.237       .  A
O136       Al137   1.846       .  S
Al137       O145   1.858       .  S
Al137       O147   1.853       .  S
Al137       O146   1.748       .  S
C138        O151   1.295       .  A
C138       C1040   1.531       .  S
O139        C149   1.267       .  A
O139       Al141   1.986       .  S
O140        C153   1.286       .  A
O140       Al150   1.843       .  S
Al141       O154   2.004       .  S
Al141       O151   2.077       .  S
Al141       O146   1.736       .  S
O142        C149   1.244       .  A
O142       Al150   1.893       .  S
O143        C152   1.245       .  A
O143       Al150   1.914       .  S
O144       Al150   1.856       .  S
O145        C152   1.228       .  A
O146       Al150   1.752       .  S
O147        C148   1.258       .  A
C148        C960   1.466       .  S
C149        C970   1.521       .  S
C152       C1000   1.448       .  S
C153        O154   1.306       .  A
C153        C990   1.474       .  S
O155        C170   1.257       .  A
O155       Al163   1.887       .  S
C156        O166   1.271       .  A
C156        O157   1.281       .  A
C156        C933   1.448       .  S
O157       Al159   1.934       .  S
O158        C160   1.239       .  A
O158       Al159   1.789       .  S
Al159       O167   1.889       .  S
Al159       O169   1.880       .  S
Al159       O168   1.764       .  S
C160        O173   1.282       .  A
C160       C1020   1.483   1_655  S
O161        C171   1.268       .  A
O161       Al163   1.973       .  S
O162        C175   1.280       .  A
O162       Al172   1.851       .  S
Al163       O176   1.964       .  S
Al163       O173   2.004       .  S
Al163       O168   1.768       .  S
O164        C171   1.252       .  A
O164       Al172   1.906       .  S
O165        C174   1.253       .  A
O165       Al172   1.935       .  S
O166       Al172   1.850       .  S
O167        C174   1.240       .  A
O168       Al172   1.770       .  S
O169        C170   1.259       .  A
C170        C920   1.468       .  S
C171        C943   1.522       .  S
C174        C953   1.465       .  S
C175        O176   1.290       .  A
C175       C1003   1.458       .  S
O177        C192   1.265       .  A
O177       Al185   1.882       .  S
C178        O188   1.254       .  A
C178        O179   1.271       .  A
C178        C900   1.475       .  S
O179       Al181   1.924       .  S
O180        C182   1.238       .  A
O180       Al181   1.856       .  S
Al181       O189   1.875       .  S
Al181       O191   1.965       .  S
Al181       O190   1.762       .  S
C182        O195   1.275       .  A
C182       C1070   1.512       .  S
O183        C193   1.287       .  A
O183       Al185   1.979       .  S
O184        C197   1.255       .  A
O184       Al194   1.871       .  S
Al185       O198   1.971       .  S
Al185       O195   2.017       .  S
Al185       O190   1.791       .  S
O186        C193   1.280       .  A
O186       Al194   1.976       .  S
O187        C196   1.260       .  A
O187       Al194   1.912       .  S
O188       Al194   1.844       .  S
O189        C196   1.248       .  A
O190       Al194   1.764       .  S
O191        C192   1.280       .  A
C192        C893   1.499       .  S
C193        C913   1.540       .  S
C196        C993   1.468       .  S
C197        O198   1.275       .  A
C197        C950   1.471       .  S
O199        C214   1.267       .  A
O199       Al207   1.926       .  S
C200        O210   1.277       .  A
C200        O201   1.296       .  A
C200        C983   1.450       .  S
O201       Al203   1.969       .  S
O202        C204   1.240       .  A
O202       Al203   1.821       .  S
Al203       O211   1.885       .  S
Al203       O213   1.877       .  S
Al203       O212   1.746       .  S
C204        O217   1.284       .  A
C204       C1150   1.497       .  S
O205        C215   1.267       .  A
O205       Al207   1.991       .  S
O206        C219   1.288       .  A
O206       Al216   1.851       .  S
Al207       O220   1.995       .  S
Al207       O217   2.018       .  S
Al207       O212   1.728       .  S
O208        C215   1.246       .  A
O208       Al216   1.920       .  S
O209        C218   1.247       .  A
O209       Al216   1.924       .  S
O210       Al216   1.836       .  S
O211        C218   1.236       .  A
O212       Al216   1.757       .  S
O213        C214   1.264       .  A
C214        C860   1.463       .  S
C215        C940   1.507       .  S
C218        C880   1.467       .  S
C219        O220   1.303       .  A
C219        C873   1.459       .  S
O221        C236   1.296       .  A
O221       Al229   1.995       .  S
C222        O232   1.281       .  A
C222        O223   1.289       .  A
C222        C903   1.464       .  S
O223       Al225   1.938       .  S
O224        C226   1.222       .  A
O224       Al225   1.870       .  S
Al225       O233   1.847       .  S
Al225       O235   1.862       .  S
Al225       O234   1.754       .  S
C226        O239   1.275       .  A
C226       C1200   1.524       .  S
O227        C237   1.273       .  A
O227       Al229   1.959       .  S
O228        C241   1.259       .  A
O228       Al238   1.846       .  S
Al229       O242   1.939       .  S
Al229       O239   2.075       .  S
Al229       O234   1.762       .  S
O230        C237   1.267       .  A
O230       Al238   1.927       .  S
O231        C240   1.256       .  A
O231       Al238   1.942       .  S
O232       Al238   1.913       .  S
O233        C240   1.236       .  A
O234       Al238   1.734       .  S
O235        C236   1.285       .  A
C236        C840   1.462       .  S
C237        C973   1.521       .  S
C240        C853   1.472       .  S
C241        O242   1.272       .  A
C241        C883   1.457       .  S
O243        C258   1.276       .  A
O243       Al251   1.965       .  S
C244        O254   1.279       .  A
C244        O245   1.291       .  A
C244        C930   1.445       .  S
O245       Al247   1.956       .  S
O246        C248   1.234       .  A
O246       Al247   1.866       .  S
Al247       O255   1.856       .  S
Al247       O257   1.851       .  S
Al247       O256   1.751       .  S
C248        O261   1.285       .  A
C248       C1113   1.532       .  S
O249        C259   1.268       .  A
O249       Al251   2.001       .  S
O250        C263   1.284       .  A
O250       Al260   1.843       .  S
Al251       O264   1.987       .  S
Al251       O261   2.062       .  S
Al251       O256   1.739       .  S
O252        C259   1.246       .  A
O252       Al260   1.915       .  S
O253        C262   1.244       .  A
O253       Al260   1.898       .  S
O254       Al260   1.845       .  S
O255        C262   1.230       .  A
O256       Al260   1.741       .  S
O257        C258   1.263       .  A
C258        C830   1.458       .  S
C259        C910   1.524       .  S
C262        C870   1.453       .  S
C263        O264   1.302       .  A
C263        C850   1.465       .  S
O265        C280   1.292       .  A
O265       Al273   1.978       .  S
C266        O276   1.282       .  A
C266        O267   1.268       .  A
C266        C800   1.469       .  S
O267       Al269   1.858       .  S
O268        C270   1.251       .  A
O268       Al269   1.920       .  S
Al269       O277   1.937       .  S
Al269       O279   1.846       .  S
Al269       O278   1.787       .  S
C270        O283   1.275       .  A
C270        C790   1.531       .  S
O271        C281   1.291       .  A
O271       Al273   2.048       .  S
O272        C285   1.252       .  A
O272       Al282   1.865       .  S
Al273       O286   1.938       .  S
Al273       O283   2.006       .  S
Al273       O278   1.766       .  S
O274        C281   1.233       .  A
O274       Al282   1.760       .  S
O275        C284   1.233       .  A
O275       Al282   1.861       .  S
O276       Al282   1.959       .  S
O277        C284   1.255       .  A
O278       Al282   1.769       .  S
O279        C280   1.275       .  A
C280        C810   1.470       .  S
C281        C780   1.505       .  S
C284        C823   1.449       .  S
C285        O286   1.265       .  A
C285       C1060   1.489       .  S
O287        C302   1.297       .  A
O287       Al295   1.964       .  S
C288        O298   1.290       .  A
C288        O289   1.275       .  A
C288        C760   1.449       .  S
O289       Al291   1.841       .  S
O290        C292   1.250       .  A
O290       Al291   1.916       .  S
Al291       O299   1.941       .  S
Al291       O301   1.860       .  S
Al291       O300   1.757       .  S
C292        O305   1.269       .  A
C292        C750   1.541       .  S
O293        C303   1.287       .  A
O293       Al295   2.036       .  S
O294        C307   1.258       .  A
O294       Al304   1.852       .  S
Al295       O308   1.949       .  S
Al295       O305   2.003       .  S
Al295       O300   1.742       .  S
O296        C303   1.241       .  A
O296       Al304   1.841       .  S
O297        C306   1.232       .  A
O297       Al304   1.876       .  S
O298       Al304   1.957       .  S
O299        C306   1.248       .  A
O300       Al304   1.753       .  S
O301        C302   1.291       .  A
C302        C820   1.461       .  S
C303        C743   1.514       .  S
C306        C770   1.470       .  S
C307        O308   1.271       .  A
C307       C1033   1.466       .  S
O309        C324   1.279       .  A
O309       Al317   1.991       .  S
C310        O320   1.272       .  A
C310        O311   1.255       .  A
C310        C720   1.456       .  S
O311       Al313   1.816       .  S
O312        C314   1.282       .  A
O312       Al313   1.995       .  S
Al313       O321   1.937       .  S
Al313       O323   1.842       .  S
Al313       O322   1.754       .  S
C314        O327   1.282       .  A
C314        C730   1.525       .  S
O315        C325   1.278       .  A
O315       Al317   2.015       .  S
O316        C329   1.277       .  A
O316       Al326   1.971       .  S
Al317       O330   1.878       .  S
Al317       O327   1.962       .  S
Al317       O322   1.785       .  S
O318        C325   1.240       .  A
O318       Al326   1.869       .  S
O319        C328   1.247       .  A
O319       Al326   1.863       .  S
O320       Al326   1.940       .  S
O321        C328   1.265       .  A
O322       Al326   1.761       .  S
O323        C324   1.253       .  A
C324        C773   1.473       .  S
C325        C710   1.504       .  S
C328        C813   1.464       .  S
C329        O330   1.262       .  A
C329       C1013   1.478       .  S
O331        C346   1.268       .  A
O331       Al339   1.918       .  S
C332        O342   1.267       .  A
C332        O333   1.280       .  A
C332        C803   1.445       .  S
O333       Al335   1.920       .  S
O334        C336   1.257       .  A
O334       Al335   1.900       .  S
Al335       O343   1.917       .  S
Al335       O345   1.851       .  S
Al335       O344   1.747       .  S
C336        O349   1.277       .  A
C336        C753   1.537       .  S
O337        C347   1.274       .  A
O337       Al339   2.047       .  S
O338        C351   1.282       .  A
O338       Al348   1.889       .  S
Al339       O352   2.013       .  S
Al339       O349   2.004       .  S
Al339       O344   1.770       .  S
O340        C347   1.239       .  A
O340       Al348   1.842       .  S
O341        C350   1.241       .  A
O341       Al348   1.885       .  S
O342       Al348   1.878       .  S
O343        C350   1.251       .  A
O344       Al348   1.791       .  S
O345        C346   1.262       .  A
C346        C700   1.455       .  S
C347        C680   1.508       .  S
C350        C693   1.469       .  S
C351        O352   1.298       .  A
C351       C1193   1.493       .  S
O353        C368   1.296       .  A
O353       Al361   1.998       .  S
C354        O364   1.279       .  A
C354        O355   1.269       .  A
C354        C763   1.435       .  S
O355       Al357   1.835       .  S
O356        C358   1.253       .  A
O356       Al357   1.927       .  S
Al357       O365   1.926       .  S
Al357       O367   1.811       .  S
Al357       O366   1.780       .  S
C358        O371   1.272       .  A
C358        C733   1.530       .  S
O359        C369   1.288       .  A
O359       Al361   2.024       .  S
O360        C373   1.259       .  A
O360       Al370   1.880       .  S
Al361       O374   1.892       .  S
Al361       O371   1.997       .  S
Al361       O366   1.757       .  S
O362        C369   1.237       .  A
O362       Al370   1.793       .  S
O363        C372   1.240       .  A
O363       Al370   1.879       .  S
O364       Al370   1.926       .  S
O365        C372   1.255       .  A
O366       Al370   1.765       .  S
O367        C368   1.272       .  A
C368        C673   1.475       .  S
C369        C663   1.493       .  S
C372        C703   1.453       .  S
C373        O374   1.258       .  A
C373       C1140   1.472       .  S
O375        C390   1.270       .  A
O375       Al383   1.943       .  S
C376        O386   1.285       .  A
C376        O377   1.277       .  A
C376        C723   1.477       .  S
O377       Al379   1.922       .  S
O378        C380   1.272       .  A
O378       Al379   1.947       .  S
Al379       O387   1.970       .  S
Al379       O389   1.835       .  S
Al379       O388   1.752       .  S
C380        O393   1.277       .  A
C380        C793   1.541       .  S
O381        C391   1.273       .  A
O381       Al383   2.042       .  S
O382        C395   1.284       .  A
O382       Al392   1.885       .  S
Al383       O396   2.003       .  S
Al383       O393   1.980       .  S
Al383       O388   1.756       .  S
O384        C391   1.228       .  A
O384       Al392   1.855       .  S
O385        C394   1.238       .  A
O385       Al392   1.845       .  S
O386       Al392   1.923       .  S
O387        C394   1.261       .  A
O388       Al392   1.770       .  S
O389        C390   1.255       .  A
C390        C690   1.467       .  S
C391        C653   1.512       .  S
C394        C670   1.480       .  S
C395        O396   1.299       .  A
C395       C1100   1.488       .  S
O397        C412   1.288       .  A
O397       Al405   1.962       .  S
C398        O408   1.284       .  A
C398        O399   1.270       .  A
C398        C620   1.461       .  S
O399       Al401   1.855       .  S
O400        C402   1.256       .  A
O400       Al401   1.921       .  S
Al401       O409   1.941       .  S
Al401       O411   1.851       .  S
Al401       O410   1.774       .  S
C402        O415   1.279       .  A
C402        C610   1.540       .  S
O403        C413   1.287       .  A
O403       Al405   2.031       .  S
O404        C417   1.259       .  A
O404       Al414   1.885       .  S
Al405       O418   1.900       .  S
Al405       O415   1.995       .  S
Al405       O410   1.776       .  S
O406        C413   1.237       .  A
O406       Al414   1.786       .  S
O407        C416   1.237       .  A
O407       Al414   1.878       .  S
O408       Al414   1.951       .  S
O409        C416   1.254       .  A
O410       Al414   1.767       .  S
O411        C412   1.277       .  A
C412        C630   1.461       .  S
C413        C740   1.505       .  S
C416        C640   1.467       .  S
C417        O418   1.259       .  A
C417        C963   1.475       .  S
O419        C434   1.306       .  A
O419       Al427   2.008       .  S
C420        O430   1.290       .  A
C420        O421   1.279       .  A
C420        C593   1.443       .  S
O421       Al423   1.840       .  S
O422        C424   1.246       .  A
O422       Al423   1.922       .  S
Al423       O431   1.911       .  S
Al423       O433   1.836       .  S
Al423       O432   1.746       .  S
C424        O437   1.262       .  A
C424        C580   1.510       .  S
O425        C435   1.283       .  A
O425       Al427   2.040       .  S
O426        C439   1.260       .  A
O426       Al436   1.851       .  S
Al427       O440   1.952       .  S
Al427       O437   1.975       .  S
Al427       O432   1.736       .  S
O428        C435   1.240       .  A
O428       Al436   1.863       .  S
O429        C438   1.233       .  A
O429       Al436   1.871       .  S
O430       Al436   1.958       .  S
O431        C438   1.246       .  A
O432       Al436   1.751       .  S
O433        C434   1.284       .  A
C434        C643   1.467       .  S
C435        C713   1.522       .  S
C438        C600   1.457       .  S
C439        O440   1.271       .  A
C439        C923   1.458       .  S
O441        C456   1.293       .  A
O441       Al449   1.977       .  S
C442        O452   1.283       .  A
C442        O443   1.269       .  A
C442        C563   1.468       .  S
O443       Al445   1.853       .  S
O444        C446   1.251       .  A
O444       Al445   1.920       .  S
Al445       O453   1.944       .  S
Al445       O455   1.852       .  S
Al445       O454   1.782       .  S
C446        O459   1.270       .  A
C446        C570   1.518       .  S
O447        C457   1.289       .  A
O447       Al449   2.041       .  S
O448        C461   1.251       .  A
O448       Al458   1.857       .  S
Al449       O462   1.946       .  S
Al449       O459   1.983       .  S
Al449       O454   1.759       .  S
O450        C457   1.235       .  A
O450       Al458   1.774       .  S
O451        C460   1.232       .  A
O451       Al458   1.863       .  S
O452       Al458   1.959       .  S
O453        C460   1.254       .  A
O454       Al458   1.767       .  S
O455        C456   1.277       .  A
C456        C603   1.460       .  S
C457        C783   1.509       .  S
C460        C633   1.452       .  S
C461        O462   1.267       .  A
C461        C890   1.491       .  S
O463        C478   1.312       .  A
O463       Al471   2.021       .  S
C464        O474   1.296       .  A
C464        O465   1.280       .  A
C464        C623   1.447       .  S
O465       Al467   1.829       .  S
O466        C468   1.244       .  A
O466       Al467   1.892       .  S
Al467       O475   1.901       .  S
Al467       O477   1.850       .  S
Al467       O476   1.737       .  S
C468        O481   1.267       .  A
C468        C583   1.521       .  S
O469        C479   1.289       .  A
O469       Al471   2.073       .  S
O470        C483   1.261       .  A
O470       Al480   1.848       .  S
Al471       O484   1.969       .  S
Al471       O481   2.007       .  S
Al471       O476   1.723       .  S
O472        C479   1.238       .  A
O472       Al480   1.871       .  S
O473        C482   1.230       .  A
O473       Al480   1.869       .  S
O474       Al480   1.979       .  S
O475        C482   1.242       .  A
O476       Al480   1.738       .  S
O477        C478   1.290       .  A
C478        C540   1.469       .  S
C479        C660   1.540       .  S
C482        C550   1.451       .  S
C483        O484   1.276       .  A
C483        C863   1.460       .  S
O485        C500   1.272       .  A
O485       Al493   1.922       .  S
C486        O496   1.270       .  A
C486        O487   1.288       .  A
C486        C560   1.451       .  S
O487       Al489   1.939       .  S
O488        C490   1.255       .  A
O488       Al489   1.887       .  S
Al489       O497   1.933       .  S
Al489       O499   1.857       .  S
Al489       O498   1.729       .  S
C490        O503   1.280       .  A
C490        C613   1.528       .  S
O491        C501   1.287       .  A
O491       Al493   2.125       .  S
O492        C505   1.280       .  A
O492       Al502   1.847       .  S
Al493       O506   2.015       .  S
Al493       O503   2.000       .  S
Al493       O498   1.760       .  S
O494        C501   1.225       .  A
O494       Al502   1.896       .  S
O495        C504   1.232       .  A
O495       Al502   1.847       .  S
O496       Al502   1.891       .  S
O497        C504   1.250       .  A
O498       Al502   1.763       .  S
O499        C500   1.267       .  A
C500        C553   1.448       .  S
C501        C683   1.549       .  S
C504        C533   1.465       .  S
C505        O506   1.299       .  A
C505        C843   1.463       .  S
O507        C522   1.292       .  A
O507       Al515   1.976       .  S
C508        O518   1.281       .  A
C508        O509   1.270       .  A
C508        C590   1.447       .  S
O509       Al511   1.841       .  S
O510        C512   1.254       .  A
O510       Al511   1.918       .  S
Al511       O519   1.923       .  S
Al511       O521   1.848       .  S
Al511       O520   1.769       .  S
C512        O525   1.268       .  A
C512        C573   1.529       .  S
O513        C523   1.281       .  A
O513       Al515   2.005       .  S
O514        C527   1.260       .  A
O514       Al524   1.883       .  S
Al515       O528   1.893       .  S
Al515       O525   1.980       .  S
Al515       O520   1.770       .  S
O516        C523   1.240       .  A
O516       Al524   1.801       .  S
O517        C526   1.243       .  A
O517       Al524   1.895       .  S
O518       Al524   1.937       .  S
O519        C526   1.252       .  A
O520       Al524   1.770       .  S
O521        C522   1.276       .  A
C522        C530   1.466       .  S
C523        C650   1.489       .  S
C526        C543   1.467       .  S
C527        O528   1.258       .  A
C527        C833   1.469       .  S
C529        C530   1.400       .  A
C529        C534   1.393       .  A
C529        F536   1.358       .  S
C530        C531   1.411       .  A
C531        C532   1.396       .  A
C531        F538   1.358       .  S
C532        C533   1.399       .  A
C532        F537   1.358       .  S
C533        C534   1.411       .  A
C534        F535   1.359       .  S
C539        C540   1.412       .  A
C539        C544   1.400       .  A
C539        F546   1.358       .  S
C540        C541   1.403       .  A
C541        C542   1.399       .  A
C541        F548   1.358       .  S
C542        C543   1.405       .  A
C542        F547   1.358       .  S
C543        C544   1.399       .  A
C544        F545   1.358       .  S
C549        C550   1.402       .  A
C549        C554   1.389       .  A
C549        F556   1.355       .  S
C550        C551   1.398       .  A
C551        C552   1.395       .  A
C551        F558   1.358       .  S
C552        C553   1.406       .  A
C552        F557   1.354       .  S
C553        C554   1.399       .  A
C554        F555   1.358       .  S
C559        C560   1.376       .  A
C559        C564   1.380       .  A
C559        F566   1.358       .  S
C560        C561   1.412       .  A
C561        C562   1.395       .  A
C561        F568   1.344       .  S
C562        C563   1.389       .  A
C562        F567   1.357       .  S
C563        C564   1.411       .  A
C564        F565   1.332       .  S
C569        C570   1.416       .  A
C569        C574   1.428       .  A
C569        F576   1.356       .  S
C570        C571   1.407       .  A
C571        C572   1.407       .  A
C571        F578   1.354       .  S
C572        C573   1.418       .  A
C572        F577   1.358       .  S
C573        C574   1.417       .  A
C574        F575   1.357       .  S
C579        C580   1.399       .  A
C579        C584   1.404       .  A
C579        F586   1.350       .  S
C580        C581   1.417       .  A
C581        C582   1.426       .  A
C581        F588   1.356       .  S
C582        C583   1.413       .  A
C582        F587   1.356       .  S
C583        C584   1.418       .  A
C584        F585   1.358       .  S
C589        C590   1.410       .  A
C589        C594   1.382       .  A
C589        F596   1.344       .  S
C590        C591   1.385       .  A
C591        C592   1.386       .  A
C591        F598   1.358       .  S
C592        C593   1.415       .  A
C592        F597   1.350       .  S
C593        C594   1.384       .  A
C594        F595   1.358       .  S
C599        C600   1.399       .  A
C599        C604   1.398       .  A
C599        F606   1.358       .  S
C600        C601   1.402       .  A
C601        C602   1.395       .  A
C601        F608   1.358       .  S
C602        C603   1.404       .  A
C602        F607   1.358       .  S
C603        C604   1.409       .  A
C604        F605   1.358       .  S
C609        C610   1.421       .  A
C609        C614   1.409       .  A
C609        F616   1.358       .  S
C610        C611   1.419       .  A
C611        C612   1.434       .  A
C611        F618   1.356       .  S
C612        C613   1.419       .  A
C612        F617   1.356       .  S
C613        C614   1.411       .  A
C614        F615   1.358       .  S
C619        C620   1.390       .  A
C619        C624   1.393       .  A
C619        F626   1.357       .  S
C620        C621   1.412       .  A
C621        C622   1.379       .  A
C621        F628   1.334       .  S
C622        C623   1.376       .  A
C622        F627   1.357       .  S
C623        C624   1.416       .  A
C624        F625   1.351       .  S
C629        C630   1.407       .  A
C629        C634   1.399       .  A
C629        F636   1.354       .  S
C630        C631   1.401       .  A
C631        C632   1.393       .  A
C631        F638   1.358       .  S
C632        C633   1.403       .  A
C632        F637   1.357       .  S
C633        C634   1.400       .  A
C634        F635   1.358       .  S
C639        C640   1.397       .  A
C639        C644   1.399       .  A
C639        F646   1.357       .  S
C640        C641   1.408       .  A
C641        C642   1.399       .  A
C641        F648   1.357       .  S
C642        C643   1.400       .  A
C642        F647   1.358       .  S
C643        C644   1.413       .  A
C644        F645   1.357       .  S
C649        C650   1.424       .  A
C649        C654   1.413   1_655  A
C649        F656   1.348       .  S
C650        C651   1.394   1_655  A
C651        C652   1.402       .  A
C651        F658   1.358       .  S
C652        C653   1.428       .  A
C652        F657   1.354       .  S
C653        C654   1.398       .  A
C654        F655   1.357       .  S
C659        C660   1.408       .  A
C659        C664   1.428       .  A
C659        F666   1.356       .  S
C660        C661   1.436       .  A
C661        C662   1.400       .  A
C661        F668   1.353       .  S
C662        C663   1.390       .  A
C662        F667   1.360       .  S
C663        C664   1.429       .  A
C664        F665   1.356       .  S
C669        C670   1.421       .  A
C669        C674   1.396       .  A
C669        F676   1.358       .  S
C670        C671   1.402       .  A
C671        C672   1.403       .  A
C671        F678   1.357       .  S
C672        C673   1.416       .  A
C672        F677   1.358       .  S
C673        C674   1.393       .  A
C674        F675   1.357       .  S
C679        C680   1.394   1_545  A
C679        C684   1.390       .  A
C679        F686   1.361       .  S
C680        C681   1.430       .  A
C681        C682   1.440   1_565  A
C681        F688   1.353       .  S
C682        C683   1.416       .  A
C682        F687   1.356       .  S
C683        C684   1.431       .  A
C684        F685   1.360       .  S
C689        C690   1.410       .  A
C689        C694   1.398       .  A
C689        F696   1.358       .  S
C690        C691   1.403       .  A
C691        C692   1.399       .  A
C691        F698   1.358       .  S
C692        C693   1.407       .  A
C692        F697   1.358       .  S
C693        C694   1.401       .  A
C694        F695   1.358       .  S
C699        C700   1.400       .  A
C699        C704   1.394       .  A
C699        F706   1.358       .  S
C700        C701   1.408       .  A
C701        C702   1.394       .  A
C701        F708   1.358       .  S
C702        C703   1.396       .  A
C702        F707   1.358       .  S
C703        C704   1.405       .  A
C704        F705   1.358       .  S
C709        C710   1.394       .  A
C709        C714   1.397   1_455  A
C709        F716   1.359       .  S
C710        C711   1.423       .  A
C711        C712   1.420       .  A
C711        F718   1.354       .  S
C712        C713   1.405   1_455  A
C712        F717   1.356       .  S
C713        C714   1.431       .  A
C714        F715   1.356       .  S
C719        C720   1.405       .  A
C719        C724   1.393       .  A
C719        F726   1.358       .  S
C720        C721   1.395       .  A
C721        C722   1.389       .  A
C721        F728   1.355       .  S
C722        C723   1.408       .  A
C722        F727   1.349       .  S
C723        C724   1.411       .  A
C724        F725   1.358       .  S
C729        C730   1.414       .  A
C729        C734   1.419       .  A
C729        F736   1.352       .  S
C730        C731   1.409       .  A
C731        C732   1.421       .  A
C731        F738   1.355       .  S
C732        C733   1.420       .  A
C732        F737   1.357       .  S
C733        C734   1.410       .  A
C734        F735   1.352       .  S
C739        C740   1.431       .  A
C739        C744   1.412       .  A
C739        F746   1.347       .  S
C740        C741   1.392       .  A
C741        C742   1.407       .  A
C741        F748   1.358       .  S
C742        C743   1.432       .  A
C742        F747   1.350       .  S
C743        C744   1.394       .  A
C744        F745   1.357       .  S
C749        C750   1.419       .  A
C749        C754   1.410       .  A
C749        F756   1.358       .  S
C750        C751   1.420       .  A
C751        C752   1.435       .  A
C751        F758   1.356       .  S
C752        C753   1.420       .  A
C752        F757   1.356       .  S
C753        C754   1.415       .  A
C754        F755   1.358       .  S
C759        C760   1.383       .  A
C759        C764   1.386       .  A
C759        F766   1.356       .  S
C760        C761   1.413       .  A
C761        C762   1.372       .  A
C761        F768   1.329       .  S
C762        C763   1.372       .  A
C762        F767   1.359       .  S
C763        C764   1.410       .  A
C764        F765   1.342       .  S
C769        C770   1.409       .  A
C769        C774   1.399       .  A
C769        F776   1.355       .  S
C770        C771   1.400       .  A
C771        C772   1.403       .  A
C771        F778   1.358       .  S
C772        C773   1.415       .  A
C772        F777   1.357       .  S
C773        C774   1.396       .  A
C774        F775   1.355       .  S
C779        C780   1.390       .  A
C779        C784   1.406   1_565  A
C779        F786   1.357       .  S
C780        C781   1.437       .  A
C781        C782   1.407       .  A
C781        F788   1.354       .  S
C782        C783   1.389   1_565  A
C782        F787   1.357       .  S
C783        C784   1.437       .  A
C784        F785   1.357       .  S
C789        C790   1.417       .  A
C789        C794   1.431       .  A
C789        F796   1.357       .  S
C790        C791   1.412       .  A
C791        C792   1.414       .  A
C791        F798   1.353       .  S
C792        C793   1.417       .  A
C792        F797   1.358       .  S
C793        C794   1.421       .  A
C794        F795   1.357       .  S
C799        C800   1.409       .  A
C799        C804   1.374       .  A
C799        F806   1.325       .  S
C800        C801   1.392       .  A
C801        C802   1.398       .  A
C801        F808   1.357       .  S
C802        C803   1.413       .  A
C802        F807   1.347       .  S
C803        C804   1.372       .  A
C804        F805   1.359       .  S
C809        C810   1.400       .  A
C809        C814   1.396       .  A
C809        F816   1.358       .  S
C810        C811   1.412       .  A
C811        C812   1.397       .  A
C811        F818   1.358       .  S
C812        C813   1.398       .  A
C812        F817   1.357       .  S
C813        C814   1.410       .  A
C814        F815   1.358       .  S
C819        C820   1.400       .  A
C819        C824   1.393       .  A
C819        F826   1.358       .  S
C820        C821   1.407       .  A
C821        C822   1.398       .  A
C821        F828   1.356       .  S
C822        C823   1.398       .  A
C822        F827   1.357       .  S
C823        C824   1.404       .  A
C824        F825   1.358       .  S
C829        C830   1.400   1_556  A
C829        C834   1.399       .  A
C829        F836   1.358   1_556  S
C830        C831   1.404   1_554  A
C831        C832   1.392       .  A
C831        F838   1.359   1_556  S
C832        C833   1.402       .  A
C832        F837   1.358       .  S
C833        C834   1.410       .  A
C834        F835   1.358       .  S
C839        C840   1.401       .  A
C839        C844   1.384   1_554  A
C839        F846   1.359       .  S
C840        C841   1.404       .  A
C841        C842   1.406   1_554  A
C841        F848   1.357       .  S
C842        C843   1.407       .  A
C842        F847   1.357       .  S
C843        C844   1.403       .  A
C844        F845   1.358       .  S
C849        C850   1.396       .  A
C849        C854   1.393       .  A
C849        F856   1.358       .  S
C850        C851   1.412       .  A
C851        C852   1.395       .  A
C851        F858   1.358       .  S
C852        C853   1.399       .  A
C852        F857   1.358       .  S
C853        C854   1.417       .  A
C854        F855   1.359       .  S
C859        C860   1.406       .  A
C859        C864   1.401   1_554  A
C859        F866   1.358       .  S
C860        C861   1.400       .  A
C861        C862   1.393   1_554  A
C861        F868   1.358       .  S
C862        C863   1.405       .  A
C862        F867   1.359       .  S
C863        C864   1.403       .  A
C864        F865   1.358       .  S
C869        C870   1.398       .  A
C869        C874   1.397       .  A
C869        F876   1.358       .  S
C870        C871   1.402       .  A
C871        C872   1.394       .  A
C871        F878   1.358       .  S
C872        C873   1.402       .  A
C872        F877   1.358       .  S
C873        C874   1.410       .  A
C874        F875   1.358       .  S
C879        C880   1.405       .  A
C879        C884   1.394       .  A
C879        F886   1.355       .  S
C880        C881   1.402       .  A
C881        C882   1.401       .  A
C881        F888   1.358       .  S
C882        C883   1.410       .  A
C882        F887   1.356       .  S
C883        C884   1.400       .  A
C884        F885   1.359       .  S
C889        C890   1.404       .  A
C889        C894   1.404       .  A
C889        F896   1.358       .  S
C890        C891   1.413       .  A
C891        C892   1.402       .  A
C891        F898   1.358       .  S
C892        C893   1.408       .  A
C892        F897   1.358       .  S
C893        C894   1.418       .  A
C894        F895   1.358       .  S
C899        C900   1.399       .  A
C899        C904   1.396       .  A
C899        F906   1.356       .  S
C900        C901   1.412       .  A
C901        C902   1.386       .  A
C901        F908   1.357       .  S
C902        C903   1.401       .  A
C902        F907   1.359       .  S
C903        C904   1.407       .  A
C904        F905   1.348       .  S
C909        C910   1.416       .  A
C909        C914   1.430       .  A
C909        F916   1.357       .  S
C910        C911   1.408       .  A
C911        C912   1.413       .  A
C911        F918   1.356       .  S
C912        C913   1.422       .  A
C912        F917   1.358       .  S
C913        C914   1.419       .  A
C914        F915   1.357       .  S
C919        C920   1.402       .  A
C919        C924   1.392       .  A
C919        F926   1.358       .  S
C920        C921   1.412       .  A
C921        C922   1.397       .  A
C921        F928   1.358       .  S
C922        C923   1.399       .  A
C922        F927   1.358       .  S
C923        C924   1.405       .  A
C924        F925   1.359       .  S
C929        C930   1.419       .  A
C929        C934   1.382       .  A
C929        F936   1.343       .  S
C930        C931   1.380       .  A
C931        C932   1.380       .  A
C931        F938   1.358       .  S
C932        C933   1.410       .  A
C932        F937   1.336       .  S
C933        C934   1.382       .  A
C934        F935   1.359       .  S
C939        C940   1.414       .  A
C939        C944   1.424       .  A
C939        F946   1.357       .  S
C940        C941   1.402       .  A
C941        C942   1.403       .  A
C941        F948   1.351       .  S
C942        C943   1.418       .  A
C942        F947   1.359       .  S
C943        C944   1.416       .  A
C944        F945   1.357       .  S
C949        C950   1.413       .  A
C949        C954   1.400       .  A
C949        F956   1.357       .  S
C950        C951   1.403       .  A
C951        C952   1.394       .  A
C951        F958   1.358       .  S
C952        C953   1.405       .  A
C952        F957   1.356       .  S
C953        C954   1.399       .  A
C954        F955   1.358       .  S
C959        C960   1.405       .  A
C959        C964   1.396       .  A
C959        F966   1.358       .  S
C960        C961   1.401       .  A
C961        C962   1.400       .  A
C961        F968   1.358       .  S
C962        C963   1.412       .  A
C962        F967   1.358       .  S
C963        C964   1.404       .  A
C964        F965   1.358       .  S
C969        C970   1.415       .  A
C969        C974   1.405       .  A
C969        F976   1.358       .  S
C970        C971   1.414       .  A
C971        C972   1.428       .  A
C971        F978   1.357       .  S
C972        C973   1.419       .  A
C972        F977   1.357       .  S
C973        C974   1.410       .  A
C974        F975   1.357       .  S
C979        C980   1.413       .  A
C979        C984   1.375       .  A
C979        F986   1.329       .  S
C980        C981   1.393       .  A
C981        C982   1.398       .  A
C981        F988   1.357       .  S
C982        C983   1.416       .  A
C982        F987   1.351       .  S
C983        C984   1.374       .  A
C984        F985   1.358       .  S
C989        C990   1.403       .  A
C989        C994   1.400       .  A
C989        F996   1.358       .  S
C990        C991   1.413       .  A
C991        C992   1.394       .  A
C991        F998   1.359       .  S
C992        C993   1.398       .  A
C992        F997   1.358       .  S
C993        C994   1.410       .  A
C994        F995   1.358       .  S
C999       C1000   1.402       .  A
C999       C1004   1.392       .  A
C999       F1006   1.358       .  S
C1000      C1001   1.397       .  A
C1001      C1002   1.396       .  A
C1001      F1008   1.358       .  S
C1002      C1003   1.408       .  A
C1002      F1007   1.357       .  S
C1003      C1004   1.402       .  A
C1004      F1005   1.358       .  S
C1009      C1010   1.410       .  A
C1009      C1014   1.418       .  A
C1009      F1016   1.357       .  S
C1010      C1011   1.399       .  A
C1011      C1012   1.386       .  A
C1011      F1018   1.353       .  S
C1012      C1013   1.400       .  A
C1012      F1017   1.355       .  S
C1013      C1014   1.409       .  A
C1014      F1015   1.356       .  S
C1019      C1020   1.426       .  A
C1019      C1024   1.424       .  A
C1019      F1026   1.353   1_455  S
C1020      C1021   1.389       .  A
C1021      C1022   1.398       .  A
C1021      F1028   1.360       .  S
C1022      C1023   1.435       .  A
C1022      F1027   1.353       .  S
C1023      C1024   1.406       .  A
C1024      F1025   1.356       .  S
C1029      C1030   1.406       .  A
C1029      C1034   1.399       .  A
C1029      F1036   1.359       .  S
C1030      C1031   1.404       .  A
C1031      C1032   1.397       .  A
C1031      F1038   1.358       .  S
C1032      C1033   1.404       .  A
C1032      F1037   1.358       .  S
C1033      C1034   1.405       .  A
C1034      F1035   1.357       .  S
C1039      C1040   1.399       .  A
C1039      C1044   1.421       .  A
C1039      F1046   1.357       .  S
C1040      C1041   1.438       .  A
C1041      C1042   1.404       .  A
C1041      F1048   1.350       .  S
C1042      C1043   1.389       .  A
C1042      F1047   1.358       .  S
C1043      C1044   1.433       .  A
C1044      F1045   1.348       .  S
C1049      C1050   1.394       .  A
C1049      C1054   1.393       .  A
C1049      F1056   1.357       .  S
C1050      C1051   1.402       .  A
C1051      C1052   1.395       .  A
C1051      F1058   1.358       .  S
C1052      C1053   1.405       .  A
C1052      F1057   1.359       .  S
C1053      C1054   1.412       .  A
C1054      F1055   1.354       .  S
C1059      C1060   1.404       .  A
C1059      C1064   1.402       .  A
C1059      F1066   1.358       .  S
C1060      C1061   1.412       .  A
C1061      C1062   1.403       .  A
C1061      F1068   1.358       .  S
C1062      C1063   1.406       .  A
C1062      F1067   1.358       .  S
C1063      C1064   1.418       .  A
C1064      F1065   1.358       .  S
C1069      C1070   1.401       .  A
C1069      C1074   1.407   1_545  A
C1069      F1076   1.357       .  S
C1070      C1071   1.426       .  A
C1071      C1072   1.409   1_545  A
C1071      F1078   1.352       .  S
C1072      C1073   1.398       .  A
C1072      F1077   1.357       .  S
C1073      C1074   1.426       .  A
C1074      F1075   1.357       .  S
C1079      C1080   1.398       .  A
C1079      C1084   1.397       .  A
C1079      F1086   1.358       .  S
C1080      C1081   1.416       .  A
C1081      C1082   1.402       .  A
C1081      F1088   1.357       .  S
C1082      C1083   1.399       .  A
C1082      F1087   1.358       .  S
C1083      C1084   1.415       .  A
C1084      F1085   1.358       .  S
C1089      C1090   1.401       .  A
C1089      C1094   1.398       .  A
C1089      F1096   1.358       .  S
C1090      C1091   1.402       .  A
C1091      C1092   1.395       .  A
C1091      F1098   1.358       .  S
C1092      C1093   1.405       .  A
C1092      F1097   1.358       .  S
C1093      C1094   1.410       .  A
C1094      F1095   1.358       .  S
C1099      C1100   1.408       .  A
C1099      C1104   1.402   1_556  A
C1099      F1106   1.358       .  S
C1100      C1101   1.406       .  A
C1101      C1102   1.406   1_556  A
C1101      F1108   1.358       .  S
C1102      C1103   1.414       .  A
C1102      F1107   1.358       .  S
C1103      C1104   1.412       .  A
C1104      F1105   1.358       .  S
C1109      C1110   1.391       .  A
C1109      C1114   1.399   1_455  A
C1109      F1116   1.358       .  S
C1110      C1111   1.429       .  A
C1111      C1112   1.422       .  A
C1111      F1118   1.358       .  S
C1112      C1113   1.406   1_455  A
C1112      F1117   1.356       .  S
C1113      C1114   1.436       .  A
C1114      F1115   1.355       .  S
C1119      C1120   1.378       .  A
C1119      C1124   1.382       .  A
C1119      F1126   1.358       .  S
C1120      C1121   1.418       .  A
C1121      C1122   1.393       .  A
C1121      F1128   1.347       .  S
C1122      C1123   1.388       .  A
C1122      F1127   1.357       .  S
C1123      C1124   1.411       .  A
C1124      F1125   1.332       .  S
C1129      C1130   1.416       .  A
C1129      C1134   1.431       .  A
C1129      F1136   1.357       .  S
C1130      C1131   1.412       .  A
C1131      C1132   1.410       .  A
C1131      F1138   1.353       .  S
C1132      C1133   1.416       .  A
C1132      F1137   1.358       .  S
C1133      C1134   1.420       .  A
C1134      F1135   1.356       .  S
C1139      C1140   1.411       .  A
C1139      C1144   1.398   1_556  A
C1139      F1146   1.358       .  S
C1140      C1141   1.405       .  A
C1141      C1142   1.393   1_556  A
C1141      F1148   1.358       .  S
C1142      C1143   1.404       .  A
C1142      F1147   1.359       .  S
C1143      C1144   1.400       .  A
C1144      F1145   1.358       .  S
C1149      C1150   1.431       .  A
C1149      C1154   1.413       .  A
C1149      F1156   1.349       .  S
C1150      C1151   1.389       .  A
C1151      C1152   1.402       .  A
C1151      F1158   1.358       .  S
C1152      C1153   1.433       .  A
C1152      F1157   1.350       .  S
C1153      C1154   1.394       .  A
C1154      F1155   1.357       .  S
C1159      C1160   1.417       .  A
C1159      C1164   1.430       .  A
C1159      F1166   1.356       .  S
C1160      C1161   1.420       .  A
C1161      C1162   1.406       .  A
C1161      F1168   1.358       .  S
C1162      C1163   1.404       .  A
C1162      F1167   1.352       .  S
C1163      C1164   1.417       .  A
C1164      F1165   1.357       .  S
C1169      C1170   1.412       .  A
C1169      C1174   1.386       .  A
C1169      F1176   1.346       .  S
C1170      C1171   1.377       .  A
C1171      C1172   1.377       .  A
C1171      F1178   1.359       .  S
C1172      C1173   1.414       .  A
C1172      F1177   1.338       .  S
C1173      C1174   1.387       .  A
C1174      F1175   1.357       .  S
C1179      C1180   1.407       .  A
C1179      C1184   1.397       .  A
C1179      F1186   1.358       .  S
C1180      C1181   1.397       .  A
C1181      C1182   1.396       .  A
C1181      F1188   1.358       .  S
C1182      C1183   1.411       .  A
C1182      F1187   1.357       .  S
C1183      C1184   1.400       .  A
C1184      F1185   1.358       .  S
C1189      C1190   1.419       .  A
C1189      C1194   1.406   1_554  A
C1189      F1196   1.358       .  S
C1190      C1191   1.410       .  A
C1191      C1192   1.406   1_554  A
C1191      F1198   1.357       .  S
C1192      C1193   1.411       .  A
C1192      F1197   1.358       .  S
C1193      C1194   1.404       .  A
C1194      F1195   1.358       .  S
C1199      C1200   1.406       .  A
C1199      C1204   1.420   1_545  A
C1199      F1206   1.356       .  S
C1200      C1201   1.433       .  A
C1201      C1202   1.391   1_545  A
C1201      F1208   1.358       .  S
C1202      C1203   1.390       .  A
C1202      F1207   1.359       .  S
C1203      C1204   1.424       .  A
C1204      F1205   1.356       .  S
C1209      C1210   1.401       .  A
C1209      C1214   1.405       .  A
C1209      F1216   1.348       .  S
C1210      C1211   1.418       .  A
C1211      C1212   1.435       .  A
C1211      F1218   1.356       .  S
C1212      C1213   1.421       .  A
C1212      F1217   1.356       .  S
C1213      C1214   1.418       .  A
C1214      F1215   1.358       .  S
C1219      C1220   1.395       .  A
C1219      C1224   1.389       .  A
C1219      F1226   1.358       .  S
C1220      C1221   1.407       .  A
C1221      C1222   1.387       .  A
C1221      F1228   1.348       .  S
C1222      C1223   1.397       .  A
C1222      F1227   1.357       .  S
C1223      C1224   1.415       .  A
C1224      F1225   1.357       .  S
C1229      C1230   1.406       .  A
C1229      C1234   1.396       .  A
C1229      F1236   1.359       .  S
C1230      C1231   1.398       .  A
C1231      C1232   1.395       .  A
C1231      F1238   1.358       .  S
C1232      C1233   1.410       .  A
C1232      F1237   1.358       .  S
C1233      C1234   1.404       .  A
C1234      F1235   1.358       .  S
C1239      C1240   1.411       .  A
C1239      C1244   1.400       .  A
C1239      F1246   1.358       .  S
C1240      C1241   1.400       .  A
C1241      C1242   1.392       .  A
C1241      F1248   1.358       .  S
C1242      C1243   1.406       .  A
C1242      F1247   1.354       .  S
C1243      C1244   1.402       .  A
C1244      F1245   1.358       .  S
