geometry optimzed in LAMMPS
_audit_creation_date              2020-12-01 
_audit_creation_method            'lammps2cif' 
_symmetry_space_group_name_H-M    'P1' 
_symmetry_Int_Tables_number       1 
_symmetry_cell_setting            triclinic 
loop_ 
_symmetry_equiv_pos_as_xyz 
  x,y,z 
_cell_length_a                    50.96916748 
_cell_length_b                    51.06029318377122 
_cell_length_c                    37.71662388054442 
_cell_angle_alpha                 90.18469995492738 
_cell_angle_beta                  89.90664239321326 
_cell_angle_gamma                 120.38025601762095 
loop_ 
_atom_site_label 
_atom_site_type_symbol 
_atom_site_fract_x 
_atom_site_fract_y 
_atom_site_fract_z 
_atom_site_charge 
Fe1        Fe  0.32550639  0.29948296  0.61444244     1.65800
Fe2        Fe  0.40319538  0.33679757  0.60788965     1.73200
Fe3        Fe  0.35984512  0.26509076  0.57520542     1.54400
O4          O  0.32263925  0.23459169  0.60604151    -0.82300
O5          O  0.41992747  0.33686033  0.55808782    -0.80600
O6          O  0.30981127  0.26016394  0.64350839    -0.84800
O7          O  0.30140375  0.27419948  0.57180499    -0.79700
O8          O  0.38775091  0.26268118  0.61121472    -0.81400
O9          O  0.38813273  0.36491444  0.58544456    -0.84200
C10         C  0.30736513  0.26532733  0.54323897     0.96600
C11         C  0.30655042  0.23543052  0.63147699     1.04000
O12         O  0.36309760  0.30053129  0.59962815    -1.13200
O13         O  0.39319749  0.34353942  0.65918058    -0.75600
O14         O  0.34332295  0.32499899  0.65934105    -0.79100
O15         O  0.33165703  0.26520171  0.53761594    -0.79800
C16         C  0.36913789  0.33973676  0.67380893     0.95500
O17         O  0.33723038  0.33735744  0.58527438    -0.77700
O18         O  0.42069355  0.31017018  0.62926159    -0.82900
C19         C  0.41561085  0.31706399  0.53499329     0.98100
C20         C  0.41077739  0.28149430  0.62887634     1.04000
O21         O  0.39544199  0.28936253  0.53930582    -0.78600
C22         C  0.36199153  0.36064225  0.57632809     1.02300
Fe23       Fe  0.30913662  0.31579269  0.87488805     1.65800
Fe24       Fe  0.34818841  0.39312398  0.88439363     1.73200
Fe25       Fe  0.27635191  0.35063005  0.91653234     1.54400
O26         O  0.24532200  0.31456317  0.88413262    -0.82300
O27         O  0.34891450  0.40920270  0.93451445    -0.80600
O28         O  0.27074039  0.30283353  0.84502625    -0.84800
O29         O  0.28199003  0.29018181  0.91598321    -0.79700
O30         O  0.27477831  0.38037721  0.88243853    -0.81400
O31         O  0.37510567  0.37613351  0.90583925    -0.84200
C32         C  0.27312294  0.29543324  0.94508992     0.96600
C33         C  0.24603220  0.29918378  0.85771836     1.04000
O34         O  0.31127846  0.35349597  0.89146507    -1.13200
O35         O  0.35412784  0.38415827  0.83246433    -0.75600
O36         O  0.33572200  0.33443466  0.83074116    -0.79100
O37         O  0.27573723  0.32078635  0.95232556    -0.79800
C38         C  0.35015148  0.36046280  0.81690128     0.95500
O39         O  0.34610630  0.32533617  0.90497652    -0.77700
O40         O  0.32271532  0.41248371  0.86492091    -0.82900
C41         C  0.32934452  0.40548329  0.95755917     0.98100
C42         C  0.29426494  0.40374774  0.86585949     1.04000
O43         O  0.30146046  0.38527679  0.95378928    -0.78600
C44         C  0.36956284  0.34959590  0.91503480     1.02300
Fe45       Fe  0.19432757  0.00789293  0.61091914     1.65800
Fe46       Fe  0.16319607  0.05290955  0.60782521     1.73200
Fe47       Fe  0.23244880  0.07719290  0.57276335     1.54400
O48         O  0.26189892  0.07696906  0.61063074    -0.82300
O49         O  0.16759262  0.07696524  0.56173972    -0.80600
O50         O  0.24044834  0.02762844  0.62259776    -0.84800
O51         O  0.20249461  0.99989335  0.56053786    -0.79700
O52         O  0.23235219  0.11189420  0.59997077    -0.81400
O53         O  0.13509829  0.01410757  0.57837472    -0.84200
C54         C  0.22445201  0.01792484  0.54111755     0.96600
C55         C  0.26327713  0.05443125  0.62274215     1.04000
O56         O  0.19705018  0.04631995  0.59779951    -1.13200
O57         O  0.15262084  0.02896496  0.65535478    -0.75600
O58         O  0.18576411  0.01295329  0.66219055    -0.79100
O59         O  0.23772634  0.04649592  0.54380495    -0.79800
C60         C  0.16478276  0.01704521  0.67365682     0.95500
O61         O  0.14448817  0.48262723  0.60100790    -0.77700
O62         O  0.19166306  0.09334618  0.63552888    -0.82900
C63         C  0.18232597  0.08139896  0.53304521     0.98100
C64         C  0.21784649  0.11466668  0.62564925     1.04000
O65         O  0.20608471  0.07922068  0.53189585    -0.78600
C66         C  0.13008079  0.48732281  0.57688923     1.02300
Fe67       Fe  0.19012400  0.48664363  0.87765184     1.65800
Fe68       Fe  0.11270372  0.44192876  0.88133599     1.73200
Fe69       Fe  0.15855315  0.42063098  0.92185710     1.54400
O70         O  0.19747751  0.42859336  0.89350697    -0.82300
O71         O  0.09427603  0.42550244  0.93021129    -0.80600
O72         O  0.20800765  0.46353349  0.85186943    -0.84800
O73         O  0.21428669  0.48911387  0.92144591    -0.79700
O74         O  0.13270959  0.38674437  0.88746619    -0.81400
O75         O  0.12431901  0.48480781  0.90290581    -0.84200
C76         C  0.20876513  0.47645757  0.95137406     0.96600
C77         C  0.21282290  0.44409300  0.86676351     1.04000
O78         O  0.15345071  0.44934033  0.89286511    -1.13200
O79         O  0.12339380  0.45824316  0.82988493    -0.75600
O80         O  0.17272882  0.49097978  0.83127083    -0.79100
O81         O  0.18400148  0.45276620  0.95828706    -0.79800
C82         C  0.14746981  0.47887019  0.81556867     0.95500
O83         O  0.17647420  0.01089304  0.90364513    -0.77700
O84         O  0.09947086  0.39764584  0.86202909    -0.82900
C85         C  0.09949663  0.41323228  0.95603726     0.98100
C86         C  0.11053315  0.38016210  0.86691514     1.04000
O87         O  0.12183058  0.40879438  0.95565867    -0.78600
C88         C  0.15106537  0.00819278  0.91172088     1.02300
Fe89       Fe  0.49162635  0.18011796  0.61551803     1.65800
Fe90       Fe  0.45125892  0.10283963  0.60801450     1.73200
Fe91       Fe  0.42328195  0.14579697  0.57587849     1.54400
O92         O  0.42974497  0.18217781  0.60809943    -0.82300
O93         O  0.43743828  0.08790435  0.55707656    -0.80600
O94         O  0.46737358  0.19363287  0.64656770    -0.84800
O95         O  0.48972379  0.20573394  0.57508920    -0.79700
O96         O  0.39169160  0.11713278  0.61051652    -0.81400
O97         O  0.49582982  0.11909417  0.58816393    -0.84200
C98         C  0.47525466  0.20019891  0.54624796     0.96600
C99         C  0.44614488  0.19722504  0.63455503     1.04000
O100        O  0.45505781  0.14256946  0.60040467    -1.13200
O101        O  0.46530557  0.11233923  0.66058206    -0.75600
O102        O  0.50008349  0.16134028  0.65867498    -0.79100
O103        O  0.45264579  0.17455181  0.53929633    -0.79800
C104        C  0.48721046  0.13602412  0.67430335     0.95500
O105        O  0.01722205  0.16728975  0.58231840    -0.77700
O106        O  0.40535869  0.08324418  0.62555458    -0.82900
C107        C  0.42150061  0.09173890  0.53433101     0.98100
C108        C  0.38627122  0.09265909  0.62518490     1.04000
O109        O  0.41276373  0.11079472  0.53938658    -0.78600
C110        C  0.01622215  0.14246137  0.57556223     1.02300
Fe111      Fe  0.02159373  0.18799461  0.87750852     1.65800
Fe112      Fe  0.06455174  0.15496555  0.88215646     1.73200
Fe113      Fe  0.09048647  0.22458338  0.91631504     1.54400
O114        O  0.09278453  0.25343390  0.87630119    -0.82300
O115        O  0.08901361  0.16032118  0.92876961    -0.80600
O116        O  0.04352396  0.23405289  0.86467743    -0.84800
O117        O  0.01405579  0.19748629  0.92774759    -0.79700
O118        O  0.12486183  0.22142869  0.89242470    -0.81400
O119        O  0.02557539  0.12772795  0.91172695    -0.84200
C120        C  0.03210848  0.22053484  0.94577419     0.96600
C121        C  0.07087253  0.25606986  0.86423774     1.04000
O122        O  0.05907090  0.18943246  0.89141890    -1.13200
O123        O  0.04016557  0.14368135  0.83433184    -0.75600
O124        O  0.02602997  0.17805016  0.82623351    -0.79100
O125        O  0.06068164  0.23327294  0.94269271    -0.79800
C126        C  0.02903828  0.15626327  0.81528619     0.95500
O127        O  0.49620991  0.14339817  0.89040279    -0.77700
O128        O  0.10467921  0.18278810  0.85393022    -0.82900
C129        C  0.09286211  0.17508475  0.95747200     0.98100
C130        C  0.12671600  0.20802263  0.86504667     1.04000
O131        O  0.08967668  0.19820157  0.95846195    -0.78600
C132        C  0.50138323  0.12914068  0.91420775     1.02300
Fe133      Fe  0.18567703  0.18657439  0.38090664     1.65800
Fe134      Fe  0.15500513  0.22369843  0.42159761     1.73200
Fe135      Fe  0.10952612  0.15591561  0.38347595     1.54400
O136        O  0.12362178  0.14538382  0.33553801    -0.82300
O137        O  0.12647398  0.19554698  0.46164198    -0.80600
O138        O  0.17266155  0.17977575  0.32919422    -0.84800
O139        O  0.16401353  0.14026796  0.38979181    -0.79700
O140        O  0.09863705  0.18550850  0.35675166    -0.81400
O141        O  0.19139485  0.22855083  0.44950634    -0.84200
C142        C  0.14375425  0.12601236  0.41307256     0.96600
C143        C  0.14806550  0.15793004  0.31726309     1.04000
O144        O  0.15018643  0.18935652  0.39437833    -1.13200
O145        O  0.18506616  0.25444485  0.38439842    -0.75600
O146        O  0.21256455  0.23288445  0.37122868    -0.79100
O147        O  0.11967287  0.12774156  0.41352654    -0.79800
C148        C  0.20915193  0.25589400  0.37223300     0.95500
O149        O  0.20103209  0.19273578  0.43161021    -0.77700
O150        O  0.11964797  0.22383465  0.39591762    -0.82900
C151        C  0.09973809  0.17266663  0.45907765     0.98100
C152        C  0.10308462  0.21093136  0.36902428     1.04000
O153        O  0.08919586  0.16007930  0.42930381    -0.78600
C154        C  0.20593318  0.21458307  0.45165253     1.02300
Fe155      Fe  0.19514082  0.17492920  0.11395293     1.65800
Fe156      Fe  0.23154034  0.14620387  0.06764618     1.73200
Fe157      Fe  0.16364692  0.09894446  0.10457569     1.54400
O158        O  0.15270681  0.11021768  0.15417525    -0.82300
O159        O  0.20380596  0.11917409  0.02682827    -0.80600
O160        O  0.18847366  0.15824700  0.16408190    -0.84800
O161        O  0.14872869  0.15359647  0.10368665    -0.79700
O162        O  0.19295947  0.08694661  0.12916055    -0.81400
O163        O  0.23486714  0.18281853  0.04132490    -0.84200
C164        C  0.13499995  0.13484209  0.07860390     0.96600
C165        C  0.16694370  0.13303711  0.17471801     1.04000
O166        O  0.19735488  0.14015361  0.09599178    -1.13200
O167        O  0.26232801  0.17444911  0.10560958    -0.75600
O168        O  0.24158288  0.20119678  0.12503758    -0.79100
O169        O  0.13589671  0.11046636  0.07665746    -0.79800
C170        C  0.26415947  0.19714197  0.12202616     0.95500
O171        O  0.20183402  0.19419044  0.06549899    -0.77700
O172        O  0.23207857  0.11022721  0.09119805    -0.82900
C173        C  0.18144001  0.09223953  0.02787869     0.98100
C174        C  0.21835922  0.09181528  0.11639901     1.04000
O175        O  0.16792292  0.08065024  0.05692424    -0.78600
C176        C  0.22096829  0.19752982  0.04208919     1.02300
Fe177      Fe  0.30993729  0.48167295  0.38417862     1.65800
Fe178      Fe  0.27770802  0.41299586  0.42341463     1.73200
Fe179      Fe  0.34674857  0.44231934  0.38544929     1.54400
O180        O  0.35557745  0.46662514  0.33765862    -0.82300
O181        O  0.30673512  0.41538073  0.46373672    -0.80600
O182        O  0.31927835  0.47829067  0.33254701    -0.84800
O183        O  0.35916913  0.01151212  0.39187064    -0.79700
O184        O  0.31983448  0.40116809  0.35818843    -0.81400
O185        O  0.26790484  0.44118468  0.45167640    -0.84200
C186        C  0.37479734  0.00720287  0.41480168     0.96600
C187        C  0.34168198  0.47715261  0.31993404     1.04000
O188        O  0.31107136  0.44534208  0.39701162    -1.13200
O189        O  0.24624591  0.40892359  0.38552336    -0.75600
O190        O  0.26405199  0.45752753  0.37192786    -0.79100
O191        O  0.37305825  0.48172697  0.41507712    -0.79800
C192        C  0.24280521  0.42990269  0.37211817     0.95500
O193        O  0.30052346  0.48828975  0.43469452    -0.77700
O194        O  0.28193355  0.37998523  0.39772285    -0.82900
C195        C  0.33078832  0.41379204  0.46076278     0.98100
C196        C  0.29581231  0.37830960  0.37068808     1.04000
O197        O  0.34440618  0.41848878  0.43118159    -0.78600
C198        C  0.27896699  0.46951727  0.45403884     1.02300
Fe199      Fe  0.32886876  0.01101299  0.11223046     1.65800
Fe200      Fe  0.36341030  0.07933279  0.07275746     1.73200
Fe201      Fe  0.40531341  0.05216803  0.10942880     1.54400
O202        O  0.38962545  0.02832350  0.15766133    -0.82300
O203        O  0.39269497  0.08088134  0.03313030    -0.80600
O204        O  0.34213450  0.01899454  0.16375288    -0.84800
O205        O  0.34803587  0.48331214  0.10337187    -0.79700
O206        O  0.41958487  0.09321675  0.13658365    -0.81400
O207        O  0.32742148  0.04850056  0.04307954    -0.84200
C208        C  0.36773414  0.48753898  0.08005776     0.96600
C209        C  0.36618351  0.02132190  0.17657740     1.04000
O210        O  0.36591980  0.04814701  0.09873953    -1.13200
O211        O  0.33320941  0.08074554  0.10901541    -0.75600
O212        O  0.30308524  0.03160644  0.12005783    -0.79100
O213        O  0.39204649  0.01307874  0.07895676    -0.79800
C214        C  0.30798851  0.05857640  0.11951992     0.95500
O215        O  0.31439344  0.00196877  0.06121787    -0.77700
O216        O  0.39864698  0.11284847  0.10089003    -0.82900
C217        C  0.41840180  0.08252946  0.03528660     0.98100
C218        C  0.41606668  0.11512226  0.12621361     1.04000
O219        O  0.42704964  0.07623545  0.06390763    -0.78600
C220        C  0.31185273  0.01984388  0.04021611     1.02300
Fe221      Fe  0.49441417  0.30380159  0.10771055     1.65800
Fe222      Fe  0.42490419  0.26498356  0.07059425     1.73200
Fe223      Fe  0.44969999  0.33471830  0.10490768     1.54400
O224        O  0.47499452  0.34587471  0.15241009    -0.82300
O225        O  0.42220587  0.29098420  0.02966380    -0.80600
O226        O  0.48891649  0.31126860  0.15932762    -0.84800
O227        O  0.02139300  0.35458292  0.10053006    -0.79700
O228        O  0.40917212  0.30675683  0.13304805    -0.81400
O229        O  0.45574105  0.25994756  0.04117133    -0.84200
C230        C  0.01662225  0.36893714  0.07658931     0.96600
C231        C  0.48655043  0.33329391  0.17090443     1.04000
O232        O  0.45573516  0.30057192  0.09526514    -1.13200
O233        O  0.42579108  0.23590631  0.10878171    -0.75600
O234        O  0.47562381  0.25807644  0.11835241    -0.79100
O235        O  0.48794098  0.36174746  0.07341113    -0.79800
C236        C  0.44904057  0.23508306  0.11968508     0.95500
O237        O  0.50208088  0.29667770  0.05661496    -0.77700
O238        O  0.39060881  0.26550576  0.09818333    -0.82900
C239        C  0.41995044  0.31468642  0.03088519     0.98100
C240        C  0.38768173  0.28052923  0.12318517     1.04000
O241        O  0.42468980  0.32958164  0.05950208    -0.78600
C242        C  0.48436929  0.27431370  0.03742689     1.02300
Fe243      Fe  0.01573451  0.31687941  0.37381342     1.65800
Fe244      Fe  0.07949369  0.34687200  0.42343756     1.73200
Fe245      Fe  0.06044015  0.39264778  0.38187166     1.54400
O246        O  0.03694238  0.38042105  0.33364659    -0.82300
O247        O  0.07817392  0.37545399  0.46192692    -0.80600
O248        O  0.02729937  0.33357223  0.32381721    -0.84800
O249        O  0.49028857  0.33908630  0.38532841    -0.79700
O250        O  0.10058196  0.40171058  0.35638134    -0.81400
O251        O  0.04509364  0.31133212  0.45021652    -0.84200
C252        C  0.49566940  0.35785945  0.41040214     0.96600
C253        C  0.02982802  0.35811228  0.31305741     1.04000
O254        O  0.05221889  0.35176603  0.39262948    -1.13200
O255        O  0.08257392  0.31690102  0.38853363    -0.75600
O256        O  0.03635508  0.29096183  0.36430433    -0.79100
O257        O  0.02146786  0.38219057  0.41031414    -0.79800
C258        C  0.06250873  0.29447011  0.37063414     0.95500
O259        O  0.00150302  0.29727120  0.42181732    -0.77700
O260        O  0.11654339  0.38193643  0.39859316    -0.82900
C261        C  0.08441193  0.40269031  0.45811571     0.98100
C262        C  0.12083189  0.39709118  0.37024368     1.04000
O263        O  0.08493218  0.41309684  0.42757660    -0.78600
C264        C  0.01643651  0.29537645  0.44727223     1.02300
C265        C  0.02663284  0.34746854  0.21466291    -0.26900
C266        C  0.49957143  0.34519829  0.20636468    -0.15000
C267        C  0.48519766  0.35408465  0.23177900     0.35600
C268        C  0.49682828  0.36081524  0.26664337    -0.26400
C269        C  0.02288361  0.35961105  0.27570718    -0.15600
C270        C  0.03807002  0.35310898  0.24898934     0.36700
N271        N  0.06492158  0.35164189  0.25611832    -0.89900
H272        H  0.03811101  0.34163002  0.19462065     0.17800
H273        H  0.48485523  0.36575488  0.28692939     0.17800
N274        N  0.45783621  0.35416831  0.22290560    -0.88900
H275        H  0.05964387  0.33404011  0.27393695     0.35200
H276        H  0.08106484  0.37214268  0.26778254     0.40300
H277        H  0.46366599  0.37167908  0.20471953     0.39900
H278        H  0.44923331  0.35953950  0.24518761     0.34800
C279        C  0.45932409  0.16665582  0.12564982    -0.26900
C280        C  0.43221802  0.14556297  0.14228309    -0.15000
C281        C  0.41433078  0.15603614  0.15886252     0.35600
C282        C  0.42080217  0.18596758  0.15283152    -0.26400
C283        C  0.44574547  0.20594169  0.13197173    -0.15600
C284        C  0.46622904  0.19669388  0.12027426     0.36700
N285        N  0.49258991  0.21680343  0.09995615    -0.89900
H286        H  0.47310221  0.15886150  0.11255166     0.17800
H287        H  0.40568102  0.19328943  0.16313208     0.17800
N288        N  0.38857052  0.13553311  0.17999128    -0.88900
H289        H  0.49105237  0.20672095  0.07529552     0.35200
H290        H  0.51169173  0.21901220  0.11300916     0.40300
H291        H  0.37314636  0.11782774  0.16376111     0.39900
H292        H  0.37737412  0.14645847  0.18978421     0.34800
C293        C  0.15915661  0.38659227  0.34711807    -0.26900
C294        C  0.15109727  0.40864773  0.35434060    -0.15000
C295        C  0.17437925  0.43909044  0.35936426     0.35600
C296        C  0.20470025  0.44588904  0.36124585    -0.26400
C297        C  0.21228373  0.42289652  0.35933569    -0.15600
C298        C  0.18931508  0.39323238  0.35031837     0.36700
N299        N  0.19605960  0.36935519  0.34640267    -0.89900
H300        H  0.14142604  0.36314313  0.34325517     0.17800
H301        H  0.22203262  0.46897818  0.36766750     0.17800
N302        N  0.16801072  0.46304120  0.36622874    -0.88900
H303        H  0.18912892  0.35996807  0.32108171     0.35200
H304        H  0.18315716  0.35245930  0.36492879     0.40300
H305        H  0.14482007  0.45530846  0.36394698     0.39900
H306        H  0.17868840  0.47933461  0.34639324     0.34800
C307        C  0.37315549  0.49157269  0.22525729    -0.26900
C308        C  0.36562588  0.01441739  0.21461784    -0.15000
C309        C  0.35074539  0.02380962  0.23853712     0.35600
C310        C  0.34418436  0.01176879  0.27272949    -0.26400
C311        C  0.35201976  0.48995752  0.28387975    -0.15600
C312        C  0.36638968  0.47971114  0.26004429     0.36700
N313        N  0.37297072  0.45662966  0.27063828    -0.89900
H314        H  0.38274065  0.48273568  0.20628664     0.17800
H315        H  0.33228363  0.01886102  0.29063253     0.17800
N316        N  0.34167688  0.04507002  0.22762555    -0.88900
H317        H  0.38373396  0.45187401  0.25008161     0.35200
H318        H  0.35222411  0.43671221  0.27508816     0.40300
H319        H  0.36144908  0.06566294  0.22209911     0.39900
H320        H  0.33058250  0.04934348  0.24822212     0.34800
C321        C  0.30459903  0.25165777  0.12891182    -0.26900
C322        C  0.29447376  0.22083531  0.13546041    -0.15000
C323        C  0.31537124  0.21298934  0.14880879     0.35600
C324        C  0.34631689  0.23518501  0.15135569    -0.26400
C325        C  0.35712747  0.26506103  0.13961404    -0.15600
C326        C  0.33583884  0.27370444  0.13034665     0.36700
N327        N  0.34612240  0.30406599  0.11879680    -0.89900
H328        H  0.28877373  0.25816079  0.11895104     0.17800
H329        H  0.36244162  0.22813004  0.15837869     0.17800
N330        N  0.30553270  0.18212828  0.15779245    -0.88900
H331        H  0.33580043  0.31303657  0.13482377     0.35200
H332        H  0.33860069  0.30309413  0.09278448     0.40300
H333        H  0.31131654  0.18160219  0.18425811     0.39900
H334        H  0.31753691  0.17483896  0.14204255     0.34800
C335        C  0.26089117  0.09387808  0.14899754    -0.26900
C336        C  0.23400392  0.07613846  0.12964115    -0.15000
C337        C  0.22996594  0.04985432  0.11197763     0.35600
C338        C  0.25382125  0.04358613  0.11161607    -0.26400
C339        C  0.28204393  0.06330072  0.12761747    -0.15600
C340        C  0.28499775  0.08805644  0.14773463     0.36700
N341        N  0.31248907  0.10832487  0.16605353    -0.89900
H342        H  0.26448171  0.11436755  0.16210325     0.17800
H343        H  0.25103374  0.02437106  0.09621022     0.17800
N344        N  0.20316264  0.03063454  0.09147889    -0.88900
H345        H  0.32973120  0.11945678  0.14733134     0.35200
H346        H  0.31802786  0.09552903  0.18275802     0.40300
H347        H  0.18693866  0.03725129  0.09416680     0.39900
H348        H  0.19326663  0.00878006  0.10208968     0.34800
C349        C  0.28750616  0.32678949  0.37205433    -0.26900
C350        C  0.28157225  0.34761992  0.35506710    -0.15000
C351        C  0.25345697  0.33650858  0.33734598     0.35600
C352        C  0.23042314  0.30605451  0.34133769    -0.26400
C353        C  0.23528937  0.28589438  0.36160543    -0.15600
C354        C  0.26480182  0.29598339  0.37528922     0.36700
N355        N  0.27074910  0.27575440  0.39560345    -0.89900
H356        H  0.30874633  0.33522386  0.38630859     0.17800
H357        H  0.20822620  0.29847809  0.32989144     0.17800
N358        N  0.24714126  0.35636188  0.31708215    -0.88900
H359        H  0.29267169  0.28732674  0.40632142     0.35200
H360        H  0.27035801  0.25966649  0.37807227     0.40300
H361        H  0.26345458  0.36587527  0.29700406     0.39900
H362        H  0.24958775  0.37400553  0.33341313     0.34800
C363        C  0.13103431  0.13011090  0.22138995    -0.26900
C364        C  0.15841748  0.13144131  0.21227944    -0.15000
C365        C  0.18050728  0.13813358  0.23852757     0.35600
C366        C  0.17573622  0.14535412  0.27291871    -0.26400
C367        C  0.14929622  0.14610863  0.28171603    -0.15600
C368        C  0.12623756  0.13735308  0.25587946     0.36700
N369        N  0.09874773  0.13752246  0.26318277    -0.89900
H370        H  0.11422255  0.12548268  0.20105259     0.17800
H371        H  0.19323790  0.15133946  0.29277759     0.17800
N372        N  0.20833167  0.13889871  0.22957585    -0.88900
H373        H  0.10443737  0.15921587  0.27196149     0.35200
H374        H  0.08709606  0.12197865  0.28343110     0.40300
H375        H  0.20270481  0.11692569  0.22208060     0.39900
H376        H  0.22245160  0.14453174  0.25177961     0.34800
C377        C  0.09966586  0.28011606  0.34828417    -0.26900
C378        C  0.06979484  0.27090135  0.35862651    -0.15000
C379        C  0.04875996  0.23937782  0.36218561     0.35600
C380        C  0.05904125  0.21834356  0.35940288    -0.26400
C381        C  0.08979500  0.22817299  0.35302579    -0.15600
C382        C  0.10970535  0.25922105  0.34471998     0.36700
N383        N  0.14112037  0.27071490  0.33580287    -0.89900
H384        H  0.11589244  0.30405428  0.34465978     0.17800
H385        H  0.04377346  0.19476909  0.36621121     0.17800
N386        N  0.01772315  0.22900311  0.37173999    -0.88900
H387        H  0.14501863  0.28127215  0.31109448     0.35200
H388        H  0.14548765  0.25297343  0.33225429     0.40300
H389        H  0.01781662  0.23677513  0.39742654     0.39900
H390        H  0.00519228  0.20529330  0.37285144     0.34800
C391        C  0.09475563  0.13431484  0.99214177    -0.26900
C392        C  0.10135735  0.16459000  0.99037624    -0.15000
C393        C  0.11676963  0.18397464  0.01950663     0.35600
C394        C  0.12554921  0.17300646  0.04856447    -0.26400
C395        C  0.12004710  0.14303419  0.04977158    -0.15600
C396        C  0.10404140  0.12347441  0.02085439     0.36700
N397        N  0.09721853  0.09261991  0.01917311    -0.92300
H398        H  0.08273127  0.11884507  0.97048283     0.17800
H399        H  0.13809630  0.18876417  0.06978213     0.17800
N400        N  0.12516772  0.21531722  0.01992989    -0.88900
H401        H  0.08531031  0.08131058  0.04203614     0.35200
H402        H  0.11751026  0.09227948  0.01751009     0.40300
H403        H  0.10545094  0.21676996  0.01933823     0.39900
H404        H  0.13840415  0.22592777  0.99753668     0.34800
C405        C  0.48688043  0.10464767  0.97400199    -0.26900
C406        C  0.47809171  0.11304135  0.94271551    -0.15000
C407        C  0.44883642  0.11004656  0.94164162     0.35600
C408        C  0.42986868  0.09974371  0.97182886    -0.26400
C409        C  0.43908766  0.09229420  0.00351051    -0.15600
C410        C  0.46803483  0.09465874  0.00417045     0.36700
N411        N  0.47898186  0.08769340  0.03563800    -0.89900
H412        H  0.50923557  0.10709695  0.97579881     0.17800
H413        H  0.40779524  0.09796689  0.97062434     0.17800
N414        N  0.43856685  0.11808354  0.91023771    -0.88900
H415        H  0.49929087  0.10706959  0.04315095     0.35200
H416        H  0.48383332  0.07060048  0.02950487     0.40300
H417        H  0.41707341  0.11550451  0.91417850     0.39900
H418        H  0.43609660  0.10272028  0.89030263     0.34800
C419        C  0.03974870  0.25546447  0.99495981    -0.26900
C420        C  0.02009434  0.23475391  0.96950633    -0.15000
C421        C  0.99091021  0.23092340  0.96453911     0.35600
C422        C  0.48182028  0.23021291  0.00874656    -0.26400
C423        C  0.49724610  0.26195144  0.01261621    -0.15600
C424        C  0.03092893  0.27208630  0.01588385     0.36700
N425        N  0.05212359  0.29210724  0.04186452    -0.89900
H426        H  0.06232825  0.25882756  0.99879762     0.17800
H427        H  0.46050640  0.21597814  0.02240841     0.17800
N428        N  0.97048825  0.21053426  0.93798581    -0.88900
H429        H  0.04256919  0.28531357  0.06709136     0.35200
H430        H  0.52728753  0.32051027  0.98999297     0.40300
H431        H  0.97971525  0.21970763  0.91319691     0.39900
H432        H  0.94943111  0.20938069  0.93921747     0.34800
C433        C  0.47762882  0.12155431  0.73804971    -0.26900
C434        C  0.49838900  0.13526643  0.71017476    -0.15000
C435        C  0.02919494  0.15050957  0.71596063     0.35600
C436        C  0.03921325  0.15542990  0.75134096    -0.26400
C437        C  0.01828452  0.14502607  0.77924479    -0.15600
C438        C  0.48761429  0.12676875  0.77333544     0.36700
N439        N  0.46545983  0.11410106  0.80111897    -0.89900
H440        H  0.45344787  0.10861280  0.73255749     0.17800
H441        H  0.06331183  0.16877229  0.75718101     0.17800
N442        N  0.05085219  0.16231399  0.68741391    -0.88900
H443        H  0.46690341  0.13184362  0.81651800     0.35200
H444        H  0.47085605  0.10083460  0.81718073     0.40300
H445        H  0.04835367  0.14382843  0.67263022     0.39900
H446        H  0.07307639  0.17352339  0.69727776     0.34800
C447        C  0.03124849  0.12624097  0.52051845    -0.26900
C448        C  0.04004334  0.14464808  0.55087738    -0.15000
C449        C  0.06992472  0.16972907  0.55265408     0.35600
C450        C  0.08944465  0.17752106  0.52324075    -0.26400
C451        C  0.07979482  0.16088701  0.49139738    -0.15600
C452        C  0.05072625  0.13390309  0.49083782     0.36700
N453        N  0.04048634  0.11484601  0.45983884    -0.89900
H454        H  0.00829419  0.10700188  0.51893199     0.17800
H455        H  0.11182418  0.19760377  0.52496358     0.17800
N456        N  0.08016373  0.18808390  0.58404460    -0.88900
H457        H  0.01836173  0.09664775  0.46340115     0.35200
H458        H  0.05437693  0.10539096  0.45681905     0.40300
H459        H  0.08653031  0.21033385  0.57711123     0.39900
H460        H  0.09949741  0.18811865  0.59334180     0.34800
C461        C  0.99859747  0.25199205  0.53097935    -0.26900
C462        C  0.48423348  0.22510323  0.52128644    -0.15000
C463        C  0.47461044  0.21989268  0.48557103     0.35600
C464        C  0.48341832  0.24478848  0.46347922    -0.26400
C465        C  0.00038227  0.27140432  0.47267753    -0.15600
C466        C  0.00738177  0.27674571  0.50878016     0.36700
N467        N  0.02400464  0.30726790  0.52233348    -0.89900
H468        H  0.00436509  0.25607387  0.55883282     0.17800
H469        H  0.47715936  0.24108365  0.43568053     0.17800
N470        N  0.45709914  0.18959788  0.47149279    -0.88900
H471        H  0.02745118  0.30720687  0.54966781     0.35200
H472        H  0.01047853  0.31704402  0.51866808     0.40300
H473        H  0.47087879  0.17987130  0.47210935     0.39900
H474        H  0.45169011  0.19004152  0.44484547     0.34800
C475        C  0.38787290  0.05680128  0.44343843    -0.26900
C476        C  0.39161001  0.03121475  0.44255318    -0.15000
C477        C  0.40796382  0.02770995  0.47081791     0.35600
C478        C  0.41823738  0.04825254  0.49933694    -0.26400
C479        C  0.41252907  0.07249980  0.50137961    -0.15600
C480        C  0.39807531  0.07725431  0.47225580     0.36700
N481        N  0.39345543  0.10268355  0.47171234    -0.89900
H482        H  0.37588143  0.06053803  0.42217638     0.17800
H483        H  0.42995470  0.04437899  0.52081078     0.17800
N484        N  0.41406744  0.00325515  0.47209631    -0.88900
H485        H  0.37014322  0.09446947  0.46920770     0.35200
H486        H  0.40430789  0.11564934  0.44924550     0.40300
H487        H  0.42533565  0.00341096  0.44889236     0.39900
H488        H  0.39349196  0.98270516  0.47424426     0.34800
C489        C  0.10679202  0.30784750  0.84107274    -0.26900
C490        C  0.07730774  0.28665894  0.85237322    -0.15000
C491        C  0.05627963  0.29676218  0.85830444     0.35600
C492        C  0.06648718  0.32816726  0.85751207    -0.26400
C493        C  0.09706430  0.34948509  0.85082055    -0.15600
C494        C  0.11671651  0.33895172  0.84009462     0.36700
N495        N  0.14773413  0.36018329  0.83119287    -0.89900
H496        H  0.12299610  0.30054516  0.83551948     0.17800
H497        H  0.05134787  0.33610336  0.86589478     0.17800
N498        N  0.02545679  0.27558552  0.86844929    -0.88900
H499        H  0.15184786  0.35503397  0.80567232     0.35200
H500        H  0.16176575  0.35707570  0.84878711     0.40300
H501        H  0.01469824  0.26172168  0.84648962     0.39900
H502        H  0.01361734  0.28689573  0.87402979     0.34800
C503        C  0.17798872  0.06139493  0.93385622    -0.26900
C504        C  0.15278143  0.03182355  0.93643742    -0.15000
C505        C  0.13509300  0.02375760  0.96752220     0.35600
C506        C  0.14403416  0.04439327  0.99609177    -0.26400
C507        C  0.17085446  0.07313726  0.99478811    -0.15600
C508        C  0.18731238  0.08189153  0.96233863     0.36700
N509        N  0.21441049  0.11073499  0.95766294    -0.89900
H510        H  0.19197513  0.06796771  0.91018553     0.17800
H511        H  0.13052193  0.03713726  0.02009893     0.17800
N512        N  0.11269778  0.49032954  0.97657714    -0.88900
H513        H  0.23071407  0.11288600  0.97604734     0.35200
H514        H  0.20921447  0.12785699  0.96167932     0.40300
H515        H  0.09292114  0.48986721  0.98501286     0.39900
H516        H  0.11985726  0.48154219  0.99695150     0.34800
C517        C  0.26051089  0.01423225  0.96613156    -0.26900
C518        C  0.23350714  0.48853384  0.97699810    -0.15000
C519        C  0.23463819  0.47030379  0.00418119     0.35600
C520        C  0.26148904  0.48060905  0.02305205    -0.26400
C521        C  0.28763686  0.00703662  0.01385441    -0.15600
C522        C  0.28679952  0.02500643  0.98616067     0.36700
N523        N  0.31255005  0.05416993  0.97816591    -0.89900
H524        H  0.26019139  0.02847594  0.94508327     0.17800
H525        H  0.26189168  0.46675350  0.04452299     0.17800
N526        N  0.20895537  0.44115975  0.01234367    -0.88900
H527        H  0.30588122  0.07039994  0.98040075     0.35200
H528        H  0.31885508  0.05387334  0.95183920     0.40300
H529        H  0.21540890  0.42483930  0.00916669     0.39900
H530        H  0.20328353  0.44126515  0.03898036     0.34800
C531        C  0.03250340  0.39522110  0.01799328    -0.26900
C532        C  0.04030964  0.38517327  0.04866072    -0.15000
C533        C  0.06873730  0.38645856  0.04939062     0.35600
C534        C  0.08750013  0.39573486  0.01917601    -0.26400
C535        C  0.07893730  0.40417874  0.98776148    -0.15600
C536        C  0.05119553  0.40450318  0.98763094     0.36700
N537        N  0.04144032  0.41340522  0.95647695    -0.89900
H538        H  0.01085384  0.39438412  0.01691297     0.17800
H539        H  0.10890836  0.39607223  0.02038514     0.17800
N540        N  0.07869769  0.37806377  0.08060627    -0.88900
H541        H  0.02143970  0.41377906  0.96141661     0.35200
H542        H  0.03601989  0.39666055  0.93720533     0.40300
H543        H  0.09945144  0.39666242  0.08853335     0.39900
H544        H  0.08249189  0.36034983  0.07402155     0.34800
C545        C  0.17563673  0.10581647  0.43853744    -0.26900
C546        C  0.15002405  0.10937571  0.44156755    -0.15000
C547        C  0.13398954  0.10133350  0.47402814     0.35600
C548        C  0.14455903  0.09168281  0.50276765    -0.26400
C549        C  0.17107448  0.08961311  0.50040827    -0.15600
C550        C  0.18609536  0.09575092  0.46719815     0.36700
N551        N  0.21224915  0.09238859  0.46262367    -0.89900
H552        H  0.18816672  0.11166984  0.41382077     0.17800
H553        H  0.13208579  0.08647180  0.52749770     0.17800
N554        N  0.10756596  0.10404615  0.47865608    -0.88900
H555        H  0.22136570  0.09908285  0.43719060     0.35200
H556        H  0.20478055  0.06922348  0.46441275     0.40300
H557        H  0.11165012  0.11910594  0.49960252     0.39900
H558        H  0.08941648  0.08277523  0.48582029     0.34800
C559        C  0.30301944  0.03975229  0.62011253    -0.26900
C560        C  0.29322334  0.05897650  0.63422714    -0.15000
C561        C  0.31377604  0.08409311  0.65499964     0.35600
C562        C  0.34401251  0.09109091  0.65821946    -0.26400
C563        C  0.35495425  0.07474895  0.63929626    -0.15600
C564        C  0.33385020  0.04764730  0.62201285     0.36700
N565        N  0.34438539  0.03028745  0.60297597    -0.89900
H566        H  0.28728933  0.02016140  0.60453510     0.17800
H567        H  0.36002592  0.11198596  0.67160022     0.17800
N568        N  0.30505443  0.10376058  0.67173116    -0.88900
H569        H  0.32622283  0.01160320  0.59051930     0.35200
H570        H  0.35315483  0.02160817  0.62160779     0.40300
H571        H  0.28587987  0.09057891  0.68740754     0.39900
H572        H  0.29946390  0.11454044  0.65218897     0.34800
C573        C  0.12842949  0.48480629  0.71896088    -0.26900
C574        C  0.15381376  0.00648277  0.70942006    -0.15000
C575        C  0.16022522  0.02714902  0.73730067     0.35600
C576        C  0.17231356  0.51866700  0.76994293    -0.26400
C577        C  0.14729663  0.49028613  0.77946083    -0.15600
C578        C  0.12453726  0.47365797  0.75369985     0.36700
N579        N  0.09819010  0.44488276  0.76130740    -0.89900
H580        H  0.11194458  0.47120572  0.69879873     0.17800
H581        H  0.18972820  0.53234143  0.78919424     0.17800
N582        N  0.17363891  0.05904046  0.73014939    -0.88900
H583        H  0.08571687  0.44787310  0.78128624     0.35200
H584        H  0.10523761  0.43002698  0.77017512     0.40300
H585        H  0.19525293  0.06671972  0.71937815     0.39900
H586        H  0.17689735  0.07113013  0.75371216     0.34800
C587        C  0.10033895  0.41479194  0.52167234    -0.26900
C588        C  0.09238950  0.42319117  0.48978248    -0.15000
C589        C  0.09272110  0.45124203  0.48904173     0.35600
C590        C  0.10267603  0.47051292  0.51874719    -0.26400
C591        C  0.11287273  0.46311934  0.54965398    -0.15600
C592        C  0.11056631  0.43429787  0.55128916     0.36700
N593        N  0.11925785  0.42482554  0.58265197    -0.89900
H594        H  0.09966379  0.39328046  0.52342711     0.17800
H595        H  0.10387236  0.49226137  0.51678887     0.17800
N596        N  0.08341319  0.46120363  0.45858570    -0.88900
H597        H  0.13660487  0.42046617  0.57593044     0.35200
H598        H  0.10053172  0.40450564  0.59130138     0.40300
H599        H  0.06141519  0.44438884  0.45145257     0.39900
H600        H  0.09842143  0.46504096  0.43771188     0.34800
C601        C  0.26831832  0.01064055  0.46639091    -0.26900
C602        C  0.26394788  0.48091067  0.47704932    -0.15000
C603        C  0.24959292  0.46648985  0.50907998     0.35600
C604        C  0.23342143  0.47714536  0.52791808    -0.26400
C605        C  0.23794833  0.00559453  0.51762874    -0.15600
C606        C  0.25090323  0.01977463  0.48530110     0.36700
N607        N  0.24613662  0.04318228  0.47156008    -0.89900
H608        H  0.27724326  0.02079422  0.44072443     0.17800
H609        H  0.22356187  0.46685350  0.55324912     0.17800
N610        N  0.25199946  0.44196016  0.52386112    -0.88900
H611        H  0.23594484  0.03630241  0.44661840     0.35200
H612        H  0.26738501  0.06276081  0.46820850     0.40300
H613        H  0.27500912  0.44859706  0.52573389     0.39900
H614        H  0.24095503  0.42303730  0.50724838     0.34800
C615        C  0.40895169  0.35213552  0.00126571    -0.26900
C616        C  0.41118653  0.32572489  0.99853369    -0.15000
C617        C  0.40431232  0.31043193  0.96544753     0.35600
C618        C  0.39319613  0.32037233  0.93741089    -0.26400
C619        C  0.38920676  0.34558669  0.94106626    -0.15600
C620        C  0.39784715  0.36201552  0.97321006     0.36700
N621        N  0.39342778  0.38745994  0.97822320    -0.89900
H622        H  0.41463014  0.36457479  0.02605585     0.17800
H623        H  0.38641842  0.30758153  0.91282510     0.17800
N624        N  0.40769745  0.28436578  0.96051510    -0.88900
H625        H  0.40150093  0.39746915  0.00305751     0.35200
H626        H  0.36999953  0.37911779  0.97841395     0.40300
H627        H  0.43095385  0.29190198  0.96161886     0.39900
H628        H  0.40042354  0.27507279  0.93521910     0.34800
C629        C  0.24430738  0.24061125  0.95728503    -0.26900
C630        C  0.25807822  0.27051099  0.97037191    -0.15000
C631        C  0.25653867  0.27584425  0.00684822     0.35600
C632        C  0.24173571  0.25103205  0.02952536    -0.26400
C633        C  0.22964552  0.22148217  0.01651159    -0.15600
C634        C  0.23019978  0.21592927  0.98021530     0.36700
N635        N  0.21684390  0.18535308  0.96708330    -0.89900
H636        H  0.24474878  0.23644609  0.92916409     0.17800
H637        H  0.24138389  0.25477191  0.05780156     0.17800
N638        N  0.27097019  0.30620872  0.02093303    -0.88900
H639        H  0.21934153  0.18526023  0.93956239     0.35200
H640        H  0.19348279  0.17444329  0.97212823     0.40300
H641        H  0.29443290  0.31582754  0.01751410     0.39900
H642        H  0.26726313  0.30590598  0.04824350     0.34800
C643        C  0.16335687  0.25269276  0.83222280    -0.26900
C644        C  0.15620336  0.22450322  0.84672696    -0.15000
C645        C  0.18001491  0.21957562  0.85657143     0.35600
C646        C  0.21029056  0.24388067  0.85489491    -0.26400
C647        C  0.21686395  0.27320253  0.84535769    -0.15600
C648        C  0.19340864  0.27729253  0.83215673     0.36700
N649        N  0.19992094  0.30682801  0.82100241    -0.89900
H650        H  0.14500475  0.25660690  0.82515555     0.17800
H651        H  0.22841538  0.24076054  0.86500369     0.17800
N652        N  0.17323051  0.19087299  0.87131260    -0.88900
H653        H  0.18001499  0.30628986  0.81301262     0.35200
H654        H  0.21380141  0.31248787  0.79856732     0.40300
H655        H  0.16211423  0.18818461  0.89551797     0.39900
H656        H  0.19330826  0.19092286  0.87710664     0.34800
C657        C  0.23304480  0.41607583  0.83317542    -0.26900
C658        C  0.23856262  0.44058623  0.85491843    -0.15000
C659        C  0.26772828  0.45841812  0.87025088     0.35600
C660        C  0.28919895  0.44903922  0.86756663    -0.26400
C661        C  0.28188263  0.42181388  0.85036702    -0.15600
C662        C  0.25464751  0.40670118  0.83036983     0.36700
N663        N  0.24836554  0.38086319  0.80886967    -0.89900
H664        H  0.21110166  0.40297933  0.82042187     0.17800
H665        H  0.30995253  0.46086655  0.88299003     0.17800
N666        N  0.27520597  0.48470957  0.89120834    -0.88900
H667        H  0.22763517  0.37259270  0.79562230     0.35200
H668        H  0.24587677  0.36349781  0.82555280     0.40300
H669        H  0.27198953  0.49977426  0.87567050     0.39900
H670        H  0.26026804  0.47798391  0.91268926     0.34800
C671        C  0.37569574  0.47400744  0.01869482    -0.26900
C672        C  0.35986641  0.46441713  0.05100390    -0.15000
C673        C  0.33419926  0.43462522  0.05272474     0.35600
C674        C  0.32453936  0.41588981  0.02210958    -0.26400
C675        C  0.33996764  0.42590698  0.98960111    -0.15600
C676        C  0.36598016  0.45547657  0.98812885     0.36700
N677        N  0.38191484  0.46722015  0.95520658    -0.89900
H678        H  0.39497917  0.49685966  0.01662441     0.17800
H679        H  0.30489353  0.39322483  0.02371968     0.17800
N680        N  0.31782101  0.42345893  0.08544884    -0.88900
H681        H  0.40062893  0.48905969  0.95864707     0.35200
H682        H  0.36712492  0.46932267  0.93782442     0.40300
H683        H  0.33253325  0.42210898  0.10366470     0.39900
H684        H  0.29945350  0.40139201  0.08222909     0.34800
C685        C  0.37552844  0.38824043  0.51915483    -0.26900
C686        C  0.35929886  0.38147198  0.55106435    -0.15000
C687        C  0.33618378  0.38900105  0.55446959     0.35600
C688        C  0.32841666  0.40083809  0.52541831    -0.26400
C689        C  0.34286205  0.40523850  0.49233045    -0.15600
C690        C  0.36777033  0.40008284  0.48984396     0.36700
N691        N  0.38448480  0.40568114  0.45729474    -0.89900
H692        H  0.39314375  0.38242494  0.51628282     0.17800
H693        H  0.31007285  0.40556453  0.52854723     0.17800
N694        N  0.32006114  0.38478244  0.58709540    -0.88900
H695        H  0.40076344  0.39905488  0.45938655     0.35200
H696        H  0.39656089  0.42916834  0.45335609     0.40300
H697        H  0.33593346  0.39585982  0.60733425     0.39900
H698        H  0.30731744  0.36167241  0.59293709     0.34800
C699        C  0.26850123  0.22184729  0.51078436    -0.26900
C700        C  0.28399584  0.25319616  0.51674252    -0.15000
C701        C  0.27388574  0.27162369  0.50168781     0.35600
C702        C  0.24777630  0.25818236  0.48128053    -0.26400
C703        C  0.23160525  0.22663703  0.47578068    -0.15600
C704        C  0.24212195  0.20828894  0.49032949     0.36700
N705        N  0.22570713  0.17603541  0.48522512    -0.89900
H706        H  0.27618659  0.20778811  0.52323152     0.17800
H707        H  0.24041693  0.27261935  0.46914747     0.17800
N708        N  0.28986575  0.30394005  0.50648259    -0.88900
H709        H  0.21966986  0.16569623  0.51012856     0.35200
H710        H  0.24030052  0.16986728  0.47319452     0.40300
H711        H  0.31230209  0.31271683  0.49793760     0.39900
H712        H  0.29011828  0.30882467  0.53343453     0.34800
C713        C  0.26217728  0.15323808  0.65859665    -0.26900
C714        C  0.23380712  0.14466357  0.64319708    -0.15000
C715        C  0.22795692  0.16748532  0.63213153     0.35600
C716        C  0.25136788  0.19811644  0.63324854    -0.26400
C717        C  0.28092043  0.20615045  0.64403138    -0.15600
C718        C  0.28600026  0.18373363  0.65851073     0.36700
N719        N  0.31589788  0.19172545  0.67047545    -0.89900
H720        H  0.26683949  0.13568114  0.66679414     0.17800
H721        H  0.24731768  0.21520824  0.62181127     0.17800
N722        N  0.19938057  0.15936194  0.61606600    -0.88900
H723        H  0.31602156  0.17253913  0.67983772     0.35200
H724        H  0.32119583  0.20642805  0.69209950     0.40300
H725        H  0.20353339  0.16771707  0.59013480     0.39900
H726        H  0.18987528  0.17022405  0.63012628     0.34800
C727        C  0.34917316  0.37108598  0.75343218    -0.26900
C728        C  0.36184738  0.36251788  0.78074857    -0.15000
C729        C  0.38165021  0.35149236  0.77227000     0.35600
C730        C  0.38570199  0.34637044  0.73666450    -0.26400
C731        C  0.37040358  0.35195023  0.70959982    -0.15600
C732        C  0.35322619  0.36579182  0.71791604     0.36700
N733        N  0.33920963  0.37371568  0.69033271    -0.89900
H734        H  0.33438334  0.37997711  0.75972815     0.17800
H735        H  0.39939692  0.33624627  0.73034041     0.17800
N736        N  0.39716496  0.34436431  0.79899752    -0.88900
H737        H  0.34727730  0.39701223  0.69214519     0.35200
H738        H  0.31576258  0.36221947  0.69490794     0.40300
H739        H  0.39343279  0.35016189  0.82430104     0.39900
H740        H  0.42051111  0.35805797  0.79439116     0.34800
C741        C  0.40717047  0.23924480  0.66350963    -0.26900
C742        C  0.42629306  0.26752540  0.64728310    -0.15000
C743        C  0.45577670  0.27472446  0.63685051     0.35600
C744        C  0.46371862  0.25197520  0.63818135    -0.26400
C745        C  0.44229716  0.22215607  0.64836036    -0.15600
C746        C  0.41446614  0.21613210  0.66302148     0.36700
N747        N  0.39270632  0.18589396  0.67431843    -0.89900
H748        H  0.38457688  0.23374184  0.67182534     0.17800
H749        H  0.48524149  0.25651726  0.62706440     0.17800
N750        N  0.47625599  0.30381132  0.62146398    -0.88900
H751        H  0.37297872  0.18499652  0.68375905     0.35200
H752        H  0.40220910  0.18063755  0.69574002     0.40300
H753        H  0.46706406  0.30517177  0.59724651     0.39900
H754        H  0.49712423  0.30552924  0.61556973     0.34800
C755        C  0.46052845  0.35686539  0.50085278    -0.26900
C756        C  0.43501174  0.32729428  0.50206245    -0.15000
C757        C  0.42849543  0.30876807  0.47160686     0.35600
C758        C  0.44745549  0.31980487  0.44143581    -0.26400
C759        C  0.47337991  0.34917005  0.44055380    -0.15600
C760        C  0.47963400  0.36779585  0.47091202     0.36700
N761        N  0.50578457  0.39771774  0.47204481    -0.89900
H762        H  0.46620408  0.37172166  0.52365968     0.17800
H763        H  0.44220317  0.30476096  0.41888705     0.17800
N764        N  0.40269527  0.27863707  0.47098783    -0.88900
H765        H  0.51946198  0.39879208  0.49329155     0.35200
H766        H  0.49841172  0.41313078  0.47695877     0.40300
H767        H  0.41044600  0.26351690  0.46608497     0.39900
H768        H  0.38872804  0.27711717  0.44986572     0.34800
Fe769      Fe  0.32274322  0.79945762  0.61463718     1.65800
Fe770      Fe  0.40038587  0.83552668  0.60681836     1.73200
Fe771      Fe  0.35554751  0.76462818  0.57247031     1.54400
O772        O  0.31859730  0.73386221  0.60329533    -0.82300
O773        O  0.41670149  0.83606383  0.55662986    -0.80600
O774        O  0.30570398  0.75888362  0.64153422    -0.84800
O775        O  0.29818019  0.77627372  0.57126547    -0.79700
O776        O  0.38369895  0.76092120  0.60722663    -0.81400
O777        O  0.38629911  0.86474756  0.58568981    -0.84200
C778        C  0.30334448  0.76705599  0.54246444     0.96600
C779        C  0.30247303  0.73433617  0.62890072     1.04000
O780        O  0.35975391  0.79986755  0.59844384    -1.13200
O781        O  0.39120401  0.84185682  0.65869627    -0.75600
O782        O  0.34126535  0.82285985  0.66065543    -0.79100
O783        O  0.32703341  0.76591691  0.53622115    -0.79800
C784        C  0.36735969  0.83739341  0.67450431     0.95500
O785        O  0.33545708  0.83859807  0.58747226    -0.77700
O786        O  0.41696019  0.80785254  0.62672906    -0.82900
C787        C  0.41159245  0.81671390  0.53263461     0.98100
C788        C  0.40672151  0.77917238  0.62533889     1.04000
O789        O  0.39069264  0.78920879  0.53620059    -0.78600
C790        C  0.36031502  0.86137643  0.57772120     1.02300
Fe791      Fe  0.31055695  0.81705948  0.87670981     1.65800
Fe792      Fe  0.34763506  0.89444534  0.88385064     1.73200
Fe793      Fe  0.27574628  0.85099316  0.91625332     1.54400
O794        O  0.24535163  0.81384347  0.88484809    -0.82300
O795        O  0.34726892  0.91121933  0.93318970    -0.80600
O796        O  0.27139305  0.80149423  0.84745229    -0.84800
O797        O  0.28496756  0.79265766  0.91882589    -0.79700
O798        O  0.27330403  0.87943995  0.88054823    -0.81400
O799        O  0.37566145  0.87957515  0.90719659    -0.84200
C800        C  0.27494133  0.79752019  0.94723320     0.96600
C801        C  0.24648215  0.79779846  0.85948522     1.04000
O802        O  0.31133195  0.85443174  0.89178404    -1.13200
O803        O  0.35485080  0.88461298  0.83261547    -0.75600
O804        O  0.33599416  0.83480497  0.83189210    -0.79100
O805        O  0.27566805  0.82218634  0.95353334    -0.79800
C806        C  0.35079589  0.86060264  0.81767831     0.95500
O807        O  0.34835859  0.82873826  0.90612899    -0.77700
O808        O  0.32100464  0.91183246  0.86237791    -0.82900
C809        C  0.32773895  0.90728288  0.95635602     0.98100
C810        C  0.29239757  0.90247821  0.86309963     1.04000
O811        O  0.30002178  0.88659478  0.95269856    -0.78600
C812        C  0.37123511  0.85342375  0.91625013     1.02300
Fe813      Fe  0.19094473  0.50790017  0.60996989     1.65800
Fe814      Fe  0.15937191  0.55187592  0.60464574     1.73200
Fe815      Fe  0.22900215  0.57612806  0.57017361     1.54400
O816        O  0.25856276  0.57635637  0.60854933    -0.82300
O817        O  0.16460835  0.57647859  0.55881560    -0.80600
O818        O  0.23718357  0.52711745  0.62046085    -0.84800
O819        O  0.19767901  0.49835502  0.55970246    -0.79700
O820        O  0.22858438  0.61084200  0.59720791    -0.81400
O821        O  0.13208196  0.51313723  0.57437925    -0.84200
C822        C  0.21944264  0.51562350  0.53951183     0.96600
C823        C  0.25998864  0.55389276  0.62082023     1.04000
O824        O  0.19358287  0.54575484  0.59534644    -1.13200
O825        O  0.14810146  0.52752240  0.65244446    -0.75600
O826        O  0.18434128  0.51591955  0.66090536    -0.79100
O827        O  0.23357357  0.54437535  0.54167737    -0.79800
C828        C  0.16265866  0.51898401  0.67212734     0.95500
O829        O  0.14819932  0.98213349  0.60025364    -0.77700
O830        O  0.18762997  0.59225748  0.63260894    -0.82900
C831        C  0.17962852  0.58138576  0.53025977     0.98100
C832        C  0.21395359  0.61354474  0.62290033     1.04000
O833        O  0.20297117  0.57846605  0.52889565    -0.78600
C834        C  0.13262822  0.98800900  0.57900619     1.02300
Fe835      Fe  0.18951887  0.98545692  0.87539566     1.65800
Fe836      Fe  0.11221666  0.94144931  0.88220279     1.73200
Fe837      Fe  0.15834648  0.91890960  0.91853340     1.54400
O838        O  0.19656439  0.92707598  0.88864259    -0.82300
O839        O  0.09616813  0.92720417  0.93222449    -0.80600
O840        O  0.20588535  0.96193694  0.84732542    -0.84800
O841        O  0.21496072  0.98691092  0.91773817    -0.79700
O842        O  0.13194216  0.88563992  0.88387461    -0.81400
O843        O  0.12548205  0.98556809  0.90169021    -0.84200
C844        C  0.20995597  0.97388915  0.94745514     0.96600
C845        C  0.21107683  0.94244439  0.86144351     1.04000
O846        O  0.15301023  0.94827913  0.89142351    -1.13200
O847        O  0.12155453  0.95513805  0.83019051    -0.75600
O848        O  0.17042522  0.99062941  0.83048967    -0.79100
O849        O  0.18489919  0.95063451  0.95493306    -0.79800
C850        C  0.14483894  0.97646390  0.81551352     0.95500
O851        O  0.17539604  0.51172761  0.90389977    -0.77700
O852        O  0.09652239  0.89604409  0.86467250    -0.82900
C853        C  0.10044702  0.91232778  0.95575471     0.98100
C854        C  0.10795428  0.87865110  0.86664949     1.04000
O855        O  0.12168338  0.90626976  0.95308929    -0.78600
C856        C  0.14963518  0.50790435  0.91264085     1.02300
Fe857      Fe  0.48875691  0.67890778  0.61783926     1.65800
Fe858      Fe  0.44858658  0.60175032  0.60930942     1.73200
Fe859      Fe  0.42139485  0.64503448  0.57591128     1.54400
O860        O  0.42701898  0.68065448  0.60868732    -0.82300
O861        O  0.43453551  0.58652696  0.55861057    -0.80600
O862        O  0.46355308  0.69145172  0.64862984    -0.84800
O863        O  0.48722012  0.70538075  0.57814204    -0.79700
O864        O  0.38860780  0.61562210  0.60907596    -0.81400
O865        O  0.49339940  0.61836951  0.58917060    -0.84200
C866        C  0.47337887  0.70048000  0.54894321     0.96600
C867        C  0.44269785  0.69526782  0.63574159     1.04000
O868        O  0.45251023  0.64148349  0.60167581    -1.13200
O869        O  0.46273407  0.61076465  0.66188722    -0.75600
O870        O  0.49728651  0.65977956  0.66071254    -0.79100
O871        O  0.45187246  0.67455880  0.54059056    -0.79800
C872        C  0.48473094  0.63423047  0.67578656     0.95500
O873        O  0.01760711  0.67073672  0.58422721    -0.77700
O874        O  0.40256865  0.58253350  0.62692566    -0.82900
C875        C  0.41981324  0.59106301  0.53490084     0.98100
C876        C  0.38321241  0.59161969  0.62495627     1.04000
O877        O  0.41192922  0.61085524  0.53881674    -0.78600
C878        C  0.01663530  0.64608860  0.57638076     1.02300
Fe879      Fe  0.02241803  0.68642939  0.87720830     1.65800
Fe880      Fe  0.06503427  0.65343559  0.88484514     1.73200
Fe881      Fe  0.09121982  0.72423767  0.91636145     1.54400
O882        O  0.09215052  0.75312598  0.87678728    -0.82300
O883        O  0.08946792  0.65934012  0.93116493    -0.80600
O884        O  0.04286604  0.73224689  0.86470163    -0.84800
O885        O  0.01397958  0.69571992  0.92700336    -0.79700
O886        O  0.12527841  0.72189079  0.89078308    -0.81400
O887        O  0.02607008  0.62771362  0.91574426    -0.84200
C888        C  0.03214016  0.71789717  0.94622990     0.96600
C889        C  0.06973251  0.75493258  0.86479315     1.04000
O890        O  0.06001233  0.68850855  0.89220939    -1.13200
O891        O  0.04058968  0.64122216  0.83688600    -0.75600
O892        O  0.02908407  0.67724585  0.82652913    -0.79100
O893        O  0.06076480  0.73102241  0.94357455    -0.79800
C894        C  0.03164119  0.65498209  0.81644180     0.95500
O895        O  0.49578581  0.64018506  0.89151963    -0.77700
O896        O  0.10561920  0.68029841  0.85639960    -0.82900
C897        C  0.09417713  0.67503950  0.95914235     0.98100
C898        C  0.12735154  0.70661515  0.86549480     1.04000
O899        O  0.09227675  0.69890466  0.95893899    -0.78600
C900        C  0.50155153  0.62513090  0.91372438     1.02300
Fe901      Fe  0.18336529  0.68891242  0.37767772     1.65800
Fe902      Fe  0.15292157  0.72671682  0.41777789     1.73200
Fe903      Fe  0.10701279  0.65766768  0.38197961     1.54400
O904        O  0.12011879  0.64696462  0.33365218    -0.82300
O905        O  0.12420318  0.69970713  0.45847808    -0.80600
O906        O  0.16926366  0.68112290  0.32636197    -0.84800
O907        O  0.16251299  0.64284015  0.38793598    -0.79700
O908        O  0.09457204  0.68620238  0.35551217    -0.81400
O909        O  0.18874188  0.73132764  0.44632956    -0.84200
C910        C  0.14239892  0.62875891  0.41139197     0.96600
C911        C  0.14403599  0.66019481  0.31462855     1.04000
O912        O  0.14783515  0.69168562  0.39162561    -1.13200
O913        O  0.18317361  0.75694699  0.38034521    -0.75600
O914        O  0.21003788  0.73488277  0.36664628    -0.79100
O915        O  0.11819860  0.63024691  0.41183207    -0.79800
C916        C  0.20699693  0.75807297  0.36788529     0.95500
O917        O  0.19975472  0.69646897  0.42799317    -0.77700
O918        O  0.11808909  0.72679349  0.39129775    -0.82900
C919        C  0.09793973  0.67599981  0.45710483     0.98100
C920        C  0.09973102  0.71224519  0.36637602     1.04000
O921        O  0.08738068  0.66186522  0.42816870    -0.78600
C922        C  0.20356699  0.71767856  0.44858147     1.02300
Fe923      Fe  0.19748456  0.67564515  0.11345029     1.65800
Fe924      Fe  0.23252941  0.64583632  0.06702344     1.73200
Fe925      Fe  0.16555466  0.59967666  0.10619327     1.54400
O926        O  0.15495049  0.61232219  0.15521066    -0.82300
O927        O  0.20346174  0.61877381  0.02708262    -0.80600
O928        O  0.19202544  0.65980334  0.16361235    -0.84800
O929        O  0.15085588  0.65441991  0.10464515    -0.79700
O930        O  0.19554470  0.58861300  0.13092032    -0.81400
O931        O  0.23655896  0.68297155  0.04113481    -0.84200
C932        C  0.13640354  0.63515226  0.08025647     0.96600
C933        C  0.16874520  0.63608343  0.17445871     1.04000
O934        O  0.19905239  0.64053763  0.09602884    -1.13200
O935        O  0.26415430  0.67400606  0.10452357    -0.75600
O936        O  0.24402346  0.70158682  0.12300383    -0.79100
O937        O  0.13737402  0.61077465  0.07837821    -0.79800
C938        C  0.26639439  0.69721706  0.12016317     0.95500
O939        O  0.20324251  0.69414491  0.06480240    -0.77700
O940        O  0.23263479  0.60946838  0.09012733    -0.82900
C941        C  0.18147832  0.59165923  0.02915851     0.98100
C942        C  0.22029927  0.59268019  0.11699009     1.04000
O943        O  0.16926992  0.58036677  0.05891645    -0.78600
C944        C  0.22291886  0.69794184  0.04196278     1.02300
Fe945      Fe  0.31270380  0.98417714  0.38378223     1.65800
Fe946      Fe  0.27885900  0.91614069  0.42364410     1.73200
Fe947      Fe  0.34754011  0.94313162  0.38556609     1.54400
O948        O  0.35665408  0.96785556  0.33791263    -0.82300
O949        O  0.30754556  0.91715408  0.46334960    -0.80600
O950        O  0.31882598  0.97726688  0.33221570    -0.84800
O951        O  0.35540830  0.51071431  0.39563558    -0.79700
O952        O  0.31970546  0.90239118  0.35822145    -0.81400
O953        O  0.27247742  0.94641430  0.45242403    -0.84200
C954        C  0.37255998  0.50641770  0.41619910     0.96600
C955        C  0.34190878  0.97726699  0.31982028     1.04000
O956        O  0.31252090  0.94733317  0.39703068    -1.13200
O957        O  0.24725327  0.91341545  0.38681729    -0.75600
O958        O  0.26593915  0.96232928  0.37476834    -0.79100
O959        O  0.37438911  0.98209845  0.41548632    -0.79800
C960        C  0.24403760  0.93497918  0.37499595     0.95500
O961        O  0.30672866  0.99295450  0.43466790    -0.77700
O962        O  0.28087855  0.88218894  0.39681452    -0.82900
C963        C  0.33127252  0.91501993  0.46080612     0.98100
C964        C  0.29483883  0.88012571  0.36999663     1.04000
O965        O  0.34478610  0.91891115  0.43126047    -0.78600
C966        C  0.28565704  0.97499835  0.45511655     1.02300
Fe967      Fe  0.32970750  0.51108043  0.11107073     1.65800
Fe968      Fe  0.36543442  0.57932441  0.07125180     1.73200
Fe969      Fe  0.40623071  0.55184933  0.10936033     1.54400
O970        O  0.39024675  0.52827429  0.15768885    -0.82300
O971        O  0.39329366  0.57819758  0.03142712    -0.80600
O972        O  0.34234509  0.51790094  0.16299349    -0.84800
O973        O  0.34843798  0.98446834  0.10536240    -0.79700
O974        O  0.42044835  0.59329179  0.13604188    -0.81400
O975        O  0.32848678  0.54932703  0.04294716    -0.84200
C976        C  0.36664066  0.98834938  0.08039144     0.96600
C977        C  0.36638652  0.52044675  0.17612845     1.04000
O978        O  0.36713038  0.54797798  0.09801910    -1.13200
O979        O  0.33631971  0.58219231  0.10796000    -0.75600
O980        O  0.30527872  0.53317894  0.11934607    -0.79100
O981        O  0.39304229  0.51246035  0.07950595    -0.79800
C982        C  0.31090048  0.56045736  0.11886919     0.95500
O983        O  0.31545444  0.50265917  0.05992439    -0.77700
O984        O  0.40175663  0.61315419  0.09761111    -0.82900
C985        C  0.41887660  0.57959610  0.03397145     0.98100
C986        C  0.41809683  0.61550114  0.12408804     1.04000
O987        O  0.42805554  0.57523509  0.06344212    -0.78600
C988        C  0.31247458  0.52082183  0.03996226     1.02300
Fe989      Fe  0.49560514  0.80450013  0.10603567     1.65800
Fe990      Fe  0.42577538  0.76703730  0.06923125     1.73200
Fe991      Fe  0.45170452  0.83658399  0.10510808     1.54400
O992        O  0.47667310  0.84674107  0.15278318    -0.82300
O993        O  0.42371188  0.79404492  0.02910510    -0.80600
O994        O  0.49102698  0.81237792  0.15779860    -0.84800
O995        O  0.02222217  0.84845804  0.09837494    -0.79700
O996        O  0.41097502  0.80859129  0.13289336    -0.81400
O997        O  0.45565043  0.76139901  0.03915436    -0.84200
C998        C  0.01707748  0.86326832  0.07543341     0.96600
C999        C  0.48827586  0.83383352  0.17054409     1.04000
O1000       O  0.45717825  0.80217392  0.09427364    -1.13200
O1001       O  0.42602059  0.73679005  0.10656357    -0.75600
O1002       O  0.47572165  0.75871528  0.11710640    -0.79100
O1003       O  0.49008303  0.86378088  0.07401683    -0.79800
C1004       C  0.44909738  0.73570904  0.11773284     0.95500
O1005       O  0.50252190  0.79660005  0.05487104    -0.77700
O1006       O  0.39202796  0.76797398  0.09702105    -0.82900
C1007       C  0.42205262  0.81807495  0.03085742     0.98100
C1008       C  0.38930843  0.78269023  0.12244914     1.04000
O1009       O  0.42705918  0.83268836  0.05973649    -0.78600
C1010       C  0.48418475  0.77477869  0.03540044     1.02300
Fe1011     Fe  0.01345366  0.81837660  0.37734093     1.65800
Fe1012     Fe  0.07854269  0.84875932  0.42467506     1.73200
Fe1013     Fe  0.05887678  0.89441135  0.38343434     1.54400
O1014       O  0.03665774  0.88139323  0.33422311    -0.82300
O1015       O  0.07817517  0.87754708  0.46369004    -0.80600
O1016       O  0.02456502  0.83334257  0.32671575    -0.84800
O1017       O  0.48919951  0.83979374  0.38543819    -0.79700
O1018       O  0.10026103  0.90516878  0.35936401    -0.81400
O1019       O  0.04437972  0.81326822  0.45158308    -0.84200
C1020       C  0.49388231  0.85860186  0.41017113     0.96600
C1021       C  0.02869019  0.85819874  0.31468840     1.04000
O1022       O  0.05077893  0.85365875  0.39457051    -1.13200
O1023       O  0.08086908  0.81878708  0.38898241    -0.75600
O1024       O  0.03313056  0.79159976  0.36937899    -0.79100
O1025       O  0.01941793  0.88380338  0.41112044    -0.79800
C1026       C  0.05964601  0.79547662  0.37344554     0.95500
O1027       O  0.00000193  0.80107943  0.42641884    -0.77700
O1028       O  0.11562336  0.88379278  0.40013398    -0.82900
C1029       C  0.08332963  0.90448138  0.46013541     0.98100
C1030       C  0.12058984  0.90067573  0.37328211     1.04000
O1031       O  0.08180865  0.91440537  0.42996887    -0.78600
C1032       C  0.01558472  0.79849847  0.45057723     1.02300
C1033       C  0.02736548  0.84532618  0.21679153    -0.26900
C1034       C  0.50047367  0.84419450  0.20684485    -0.15000
C1035       C  0.48817719  0.85620411  0.23125743     0.35600
C1036       C  0.49863866  0.86140492  0.26667936    -0.26400
C1037       C  0.02250809  0.85895063  0.27689763    -0.15600
C1038       C  0.03836059  0.85213992  0.25134663     0.36700
N1039       N  0.06544157  0.85153957  0.25996381    -0.89900
H1040       H  0.03939456  0.83934778  0.19766634     0.17800
H1041       H  0.48825897  0.86909874  0.28603780     0.17800
N1042       N  0.46419806  0.86152927  0.22070154    -0.88900
H1043       H  0.06028071  0.83478195  0.27897341     0.35200
H1044       H  0.08120356  0.87259535  0.27081436     0.40300
H1045       H  0.47347327  0.87957781  0.20276288     0.39900
H1046       H  0.45665036  0.86876491  0.24236921     0.34800
C1047       C  0.46027026  0.66761974  0.12157653    -0.26900
C1048       C  0.43408591  0.64628611  0.13956023    -0.15000
C1049       C  0.41625443  0.65642628  0.15703575     0.35600
C1050       C  0.42177576  0.68610866  0.15090928    -0.26400
C1051       C  0.44590141  0.70629737  0.12912838    -0.15600
C1052       C  0.46633442  0.69739711  0.11622491     0.36700
N1053       N  0.49186915  0.71766223  0.09487715    -0.89900
H1054       H  0.47397080  0.66014464  0.10766198     0.17800
H1055       H  0.40672127  0.69312925  0.16217628     0.17800
N1056       N  0.39163822  0.63588054  0.17951002    -0.88900
H1057       H  0.48979591  0.70737088  0.07023531     0.35200
H1058       H  0.51154333  0.72046310  0.10705511     0.40300
H1059       H  0.37588587  0.61776147  0.16400214     0.39900
H1060       H  0.38043026  0.64652947  0.19008588     0.34800
C1061       C  0.16038837  0.89298735  0.34882091    -0.26900
C1062       C  0.15169780  0.91402391  0.35890484    -0.15000
C1063       C  0.17462732  0.94391584  0.36783253     0.35600
C1064       C  0.20513338  0.95096971  0.36956534    -0.26400
C1065       C  0.21323613  0.92864219  0.36383427    -0.15600
C1066       C  0.19058873  0.89971456  0.35197809     0.36700
N1067       N  0.19770408  0.87646303  0.34486843    -0.89900
H1068       H  0.14299861  0.86988677  0.34238441     0.17800
H1069       H  0.22217295  0.97341793  0.37855954     0.17800
N1070       N  0.16761003  0.96676291  0.37844885    -0.88900
H1071       H  0.19135105  0.86907480  0.31874038     0.35200
H1072       H  0.18455859  0.85814711  0.36166609     0.40300
H1073       H  0.14439987  0.95891646  0.37596551     0.39900
H1074       H  0.17858720  0.98487377  0.36075996     0.34800
C1075       C  0.37580275  0.99495696  0.22632566    -0.26900
C1076       C  0.36554151  0.51312704  0.21407720    -0.15000
C1077       C  0.35302039  0.52456482  0.23855560     0.35600
C1078       C  0.34644209  0.51302494  0.27298243    -0.26400
C1079       C  0.35216471  0.99048337  0.28397070    -0.15600
C1080       C  0.36905010  0.98268148  0.26089389     0.36700
N1081       N  0.37819491  0.96157485  0.27196572    -0.89900
H1082       H  0.38731473  0.98785792  0.20783977     0.17800
H1083       H  0.33639774  0.52196367  0.29118896     0.17800
N1084       N  0.34668420  0.54782808  0.22832240    -0.88900
H1085       H  0.39064315  0.95855487  0.25194053     0.35200
H1086       H  0.35846065  0.94052276  0.27563566     0.40300
H1087       H  0.35889188  0.56649632  0.24509447     0.39900
H1088       H  0.32350513  0.53965448  0.23227354     0.34800
C1089       C  0.30601240  0.75193941  0.12643757    -0.26900
C1090       C  0.29674916  0.72130365  0.13292504    -0.15000
C1091       C  0.31808835  0.71425412  0.14663412     0.35600
C1092       C  0.34860791  0.73723388  0.15035809    -0.26400
C1093       C  0.35875676  0.76700025  0.13865712    -0.15600
C1094       C  0.33698905  0.77478537  0.12829803     0.36700
N1095       N  0.34665333  0.80511740  0.11661271    -0.89900
H1096       H  0.28962952  0.75759289  0.11622471     0.17800
H1097       H  0.36515512  0.73087409  0.15792358     0.17800
N1098       N  0.30923418  0.68351728  0.15492703    -0.88900
H1099       H  0.32783336  0.80715531  0.11006168     0.35200
H1100       H  0.35913274  0.80898167  0.09323925     0.40300
H1101       H  0.31459329  0.68272294  0.18149594     0.39900
H1102       H  0.32219120  0.67727518  0.13933519     0.34800
C1103       C  0.26595556  0.59887269  0.14575132    -0.26900
C1104       C  0.23730711  0.57869300  0.13119829    -0.15000
C1105       C  0.23183061  0.55036938  0.11815286     0.35600
C1106       C  0.25583510  0.54427455  0.11710422    -0.26400
C1107       C  0.28554125  0.56603229  0.12790445    -0.15600
C1108       C  0.29009203  0.59317925  0.14375655     0.36700
N1109       N  0.31893821  0.61565858  0.15760002    -0.89900
H1110       H  0.27049888  0.62076148  0.15551810     0.17800
H1111       H  0.25164249  0.52317244  0.10511845     0.17800
N1112       N  0.20306361  0.52841854  0.10302414    -0.88900
H1113       H  0.33474749  0.62434737  0.13696213     0.35200
H1114       H  0.32571093  0.60519692  0.17628111     0.40300
H1115       H  0.18707567  0.53534197  0.10574646     0.39900
H1116       H  0.19472110  0.50846655  0.11777312     0.34800
C1117       C  0.28565107  0.82823578  0.36925215    -0.26900
C1118       C  0.27992692  0.84969273  0.35366128    -0.15000
C1119       C  0.25198072  0.83940001  0.33586260     0.35600
C1120       C  0.22880351  0.80888850  0.33852923    -0.26400
C1121       C  0.23339515  0.78797737  0.35757958    -0.15600
C1122       C  0.26281120  0.79740597  0.37116733     0.36700
N1123       N  0.26848283  0.77641049  0.39022150    -0.89900
H1124       H  0.30682532  0.83607060  0.38344853     0.17800
H1125       H  0.20666732  0.80184467  0.32720985     0.17800
N1126       N  0.24602509  0.86006837  0.31683370    -0.88900
H1127       H  0.29036417  0.78750301  0.40107501     0.35200
H1128       H  0.26804070  0.76084544  0.37181492     0.40300
H1129       H  0.26242722  0.87005888  0.29691028     0.39900
H1130       H  0.24869974  0.87728384  0.33406103     0.34800
C1131       C  0.15714664  0.66563087  0.21646250    -0.26900
C1132       C  0.15668266  0.63838011  0.20922768    -0.15000
C1133       C  0.14737945  0.61612658  0.23588289     0.35600
C1134       C  0.14078699  0.62266532  0.27007235    -0.26400
C1135       C  0.14344603  0.65091489  0.27759746    -0.15600
C1136       C  0.15092088  0.67218194  0.25019329     0.36700
N1137       N  0.15297280  0.70091718  0.25610560    -0.89900
H1138       H  0.16361231  0.68262466  0.19591621     0.17800
H1139       H  0.13539214  0.60651771  0.29136100     0.17800
N1140       N  0.14673760  0.58812838  0.22894437    -0.88900
H1141       H  0.17009763  0.71330023  0.27463785     0.35200
H1142       H  0.13226254  0.69695519  0.26654643     0.40300
H1143       H  0.12946036  0.57591930  0.21047604     0.39900
H1144       H  0.14071013  0.57485936  0.25185407     0.34800
C1145       C  0.09350802  0.77942121  0.34481525    -0.26900
C1146       C  0.06576501  0.77125082  0.36134867    -0.15000
C1147       C  0.04573301  0.74031870  0.36974443     0.35600
C1148       C  0.05521627  0.71892942  0.36449563    -0.26400
C1149       C  0.08441138  0.72788999  0.35164555    -0.15600
C1150       C  0.10281766  0.75810975  0.33931750     0.36700
N1151       N  0.13240047  0.76854592  0.32418934    -0.89900
H1152       H  0.10879276  0.80291964  0.33764896     0.17800
H1153       H  0.04130886  0.69609297  0.37465360     0.17800
N1154       N  0.01703025  0.73118833  0.38654050    -0.88900
H1155       H  0.13238344  0.77666080  0.29877685     0.35200
H1156       H  0.13635724  0.75053158  0.32061210     0.40300
H1157       H  0.02158575  0.74146767  0.41155087     0.39900
H1158       H  0.00502262  0.70775834  0.39090866     0.34800
C1159       C  0.09648400  0.63450721  0.99375423    -0.26900
C1160       C  0.10200438  0.66445785  0.99255387    -0.15000
C1161       C  0.11536054  0.68311824  0.02282298     0.35600
C1162       C  0.12428066  0.67216902  0.05182545    -0.26400
C1163       C  0.12057970  0.64284044  0.05200508    -0.15600
C1164       C  0.10560603  0.62362899  0.02251865     0.36700
N1165       N  0.09975729  0.59312038  0.02023828    -0.92300
H1166       H  0.08554233  0.61931111  0.97154570     0.17800
H1167       H  0.13550567  0.68748692  0.07384961     0.17800
N1168       N  0.12122007  0.71363417  0.02471261    -0.88900
H1169       H  0.08760011  0.58118175  0.04270253     0.35200
H1170       H  0.12040115  0.59346706  0.01886146     0.40300
H1171       H  0.10057401  0.71324620  0.02276166     0.39900
H1172       H  0.13535545  0.72601025  0.00361171     0.34800
C1173       C  0.48747621  0.60053132  0.97344397    -0.26900
C1174       C  0.47808889  0.60699788  0.94127615    -0.15000
C1175       C  0.44771073  0.60078071  0.93861076     0.35600
C1176       C  0.42871753  0.59120169  0.96880983    -0.26400
C1177       C  0.43895284  0.58710280  0.00182608    -0.15600
C1178       C  0.46841382  0.59069751  0.00344582     0.36700
N1179       N  0.47966917  0.58529219  0.03572440    -0.89900
H1180       H  0.51047551  0.60477200  0.97612001     0.17800
H1181       H  0.40591558  0.58753885  0.96658738     0.17800
N1182       N  0.43637488  0.60488135  0.90546154    -0.88900
H1183       H  0.49952835  0.60529649  0.04284821     0.35200
H1184       H  0.48536543  0.56860799  0.03079937     0.40300
H1185       H  0.41380575  0.59965706  0.90800162     0.39900
H1186       H  0.43631714  0.58926690  0.88740480     0.34800
C1187       C  0.03611857  0.76289548  0.97421835    -0.26900
C1188       C  0.02002662  0.73117219  0.97047650    -0.15000
C1189       C  0.99216495  0.71349514  0.98772435     0.35600
C1190       C  0.47915888  0.72996760  0.00564443    -0.26400
C1191       C  0.49599499  0.76167299  0.01018978    -0.15600
C1192       C  0.02504371  0.77732675  0.99545867     0.36700
N1193       N  0.04232161  0.80979319  0.99799570    -0.89900
H1194       H  0.05730825  0.77668189  0.96011832     0.17800
H1195       H  0.45740001  0.71641206  0.01870936     0.17800
N1196       N  0.97593976  0.68104645  0.98490202    -0.88900
H1197       H  0.05003100  0.81602649  0.02399490     0.35200
H1198       H  0.52832881  0.82016953  0.98778809     0.40300
H1199       H  0.95428328  0.67410352  0.97483427     0.39900
H1200       H  0.97333914  0.67203381  0.01038280     0.34800
C1201       C  0.47628545  0.61936843  0.73950001    -0.26900
C1202       C  0.49649389  0.63281615  0.71111209    -0.15000
C1203       C  0.03263556  0.66062857  0.71777112     0.35600
C1204       C  0.04270197  0.66371934  0.75292042    -0.26400
C1205       C  0.02325502  0.64506342  0.77958928    -0.15600
C1206       C  0.48705055  0.62412893  0.77445966     0.36700
N1207       N  0.46543966  0.61172216  0.80282110    -0.89900
H1208       H  0.45197766  0.60706052  0.73473734     0.17800
H1209       H  0.06534807  0.68179520  0.75991687     0.17800
N1210       N  0.05302842  0.68033178  0.69083128    -0.88900
H1211       H  0.46754875  0.62954595  0.81861559     0.35200
H1212       H  0.47077742  0.59810225  0.81830554     0.40300
H1213       H  0.05623349  0.66677021  0.67253949     0.39900
H1214       H  0.07441000  0.69534799  0.70156477     0.34800
C1215       C  0.03102634  0.62984135  0.52078001    -0.26900
C1216       C  0.04010828  0.64880008  0.55067776    -0.15000
C1217       C  0.06971089  0.67445607  0.55127926     0.35600
C1218       C  0.08855295  0.68214354  0.52123193    -0.26400
C1219       C  0.07859295  0.66474551  0.48995517    -0.15600
C1220       C  0.04990013  0.63728749  0.49056001     0.36700
N1221       N  0.03944118  0.61740909  0.46026019    -0.89900
H1222       H  0.00830903  0.61015003  0.52006182     0.17800
H1223       H  0.11070577  0.70259209  0.52210170     0.17800
N1224       N  0.08041928  0.69337199  0.58219866    -0.88900
H1225       H  0.01759478  0.59895764  0.46463033     0.35200
H1226       H  0.05371654  0.60838206  0.45737244     0.40300
H1227       H  0.08609374  0.71536300  0.57491492     0.39900
H1228       H  0.10024483  0.69407272  0.59085423     0.34800
C1229       C  0.00141619  0.75497597  0.53352603    -0.26900
C1230       C  0.48178287  0.72627045  0.52535005    -0.15000
C1231       C  0.46926764  0.72243918  0.49108902     0.35600
C1232       C  0.47834756  0.74777795  0.46981401    -0.26400
C1233       C  0.00004235  0.77508570  0.47666199    -0.15600
C1234       C  0.01044224  0.77996905  0.51174323     0.36700
N1235       N  0.03087112  0.81019090  0.52454384    -0.89900
H1236       H  0.00974842  0.75877603  0.56054567     0.17800
H1237       H  0.47004116  0.74448578  0.44276917     0.17800
N1238       N  0.44833393  0.69294913  0.47714266    -0.88900
H1239       H  0.03660777  0.80974537  0.55104735     0.35200
H1240       H  0.01923011  0.82216587  0.52385649     0.40300
H1241       H  0.45776761  0.68962226  0.45413028     0.39900
H1242       H  0.42832801  0.69260841  0.47010469     0.34800
C1243       C  0.39043373  0.55800165  0.44230254    -0.26900
C1244       C  0.39031593  0.53028717  0.44367270    -0.15000
C1245       C  0.40285363  0.52453408  0.47422383     0.35600
C1246       C  0.41322151  0.54519193  0.50257269    -0.26400
C1247       C  0.41117857  0.57168873  0.50221241    -0.15600
C1248       C  0.40057480  0.57851137  0.47104455     0.36700
N1249       N  0.39981233  0.60609740  0.46837101    -0.89900
H1250       H  0.38144384  0.56341672  0.41924204     0.17800
H1251       H  0.42179985  0.53959447  0.52586690     0.17800
N1252       N  0.40429953  0.49740904  0.47829480    -0.88900
H1253       H  0.37739270  0.60046335  0.46331732     0.35200
H1254       H  0.41312260  0.61830300  0.44664612     0.40300
H1255       H  0.41678126  0.49579427  0.45724633     0.39900
H1256       H  0.38224390  0.47866556  0.47820140     0.34800
C1257       C  0.10255505  0.80623287  0.83823412    -0.26900
C1258       C  0.07470165  0.78513488  0.85350760    -0.15000
C1259       C  0.05402737  0.79490613  0.86322320     0.35600
C1260       C  0.06357043  0.82617139  0.86222869    -0.26400
C1261       C  0.09301046  0.84762477  0.85116926    -0.15600
C1262       C  0.11159657  0.83714077  0.83652664     0.36700
N1263       N  0.14103614  0.85840949  0.82279256    -0.89900
H1264       H  0.11828860  0.79906808  0.82972123     0.17800
H1265       H  0.04920740  0.83400788  0.87360871     0.17800
N1266       N  0.02457591  0.77360868  0.87727543    -0.88900
H1267       H  0.14209720  0.85236940  0.79654229     0.35200
H1268       H  0.15726443  0.85627666  0.83741717     0.40300
H1269       H  0.01180351  0.75913594  0.85654035     0.39900
H1270       H  0.01306802  0.78473102  0.88530097     0.34800
C1271       C  0.17365928  0.56106772  0.93406762    -0.26900
C1272       C  0.15067553  0.53062765  0.93816809    -0.15000
C1273       C  0.13575297  0.52136680  0.97110765     0.35600
C1274       C  0.14517901  0.54204806  0.99965986    -0.26400
C1275       C  0.16994605  0.57201952  0.99650624    -0.15600
C1276       C  0.18354370  0.58164514  0.96248443     0.36700
N1277       N  0.20824444  0.61169186  0.95587293    -0.89900
H1278       H  0.18565173  0.56843257  0.90901508     0.17800
H1279       H  0.13389146  0.53395030  0.02497081     0.17800
N1280       N  0.10935091  0.99381831  0.97132003    -0.88900
H1281       H  0.22675814  0.61573512  0.97166561     0.35200
H1282       H  0.20121551  0.62713959  0.96210912     0.40300
H1283       H  0.09032148  0.99581186  0.97679410     0.39900
H1284       H  0.11313778  0.98357514  0.99314191     0.34800
C1285       C  0.25896207  0.51707712  0.96991947    -0.26900
C1286       C  0.23523218  0.98539104  0.97243962    -0.15000
C1287       C  0.23640474  0.96695288  0.99936528     0.35600
C1288       C  0.26259231  0.97796967  0.01986019    -0.26400
C1289       C  0.28716202  0.50876668  0.01525477    -0.15600
C1290       C  0.28607042  0.52709568  0.98808682     0.36700
N1291       N  0.31242817  0.55568067  0.97893999    -0.89900
H1292       H  0.25818819  0.53117550  0.94900205     0.17800
H1293       H  0.26284367  0.96397609  0.04125898     0.17800
N1294       N  0.21141079  0.93695868  0.00572910    -0.88900
H1295       H  0.30747703  0.56637179  0.95859140     0.35200
H1296       H  0.32884349  0.55107814  0.96898508     0.40300
H1297       H  0.21917387  0.92164758  0.00263551     0.39900
H1298       H  0.20441446  0.93585868  0.03203053     0.34800
C1299       C  0.03193353  0.88938600  0.01670631    -0.26900
C1300       C  0.04051348  0.88017393  0.04747069    -0.15000
C1301       C  0.06961380  0.88290896  0.04825810     0.35600
C1302       C  0.08871219  0.89358387  0.01837396    -0.26400
C1303       C  0.07967373  0.90173444  0.98718131    -0.15600
C1304       C  0.05081787  0.89970706  0.98654953     0.36700
N1305       N  0.04010170  0.90699071  0.95492415    -0.89900
H1306       H  0.00959039  0.88699077  0.01535528     0.17800
H1307       H  0.11075274  0.89526165  0.01961731     0.17800
N1308       N  0.07989295  0.87446110  0.07914662    -0.88900
H1309       H  0.01889314  0.90500437  0.95918066     0.35200
H1310       H  0.03675699  0.89077188  0.93570810     0.40300
H1311       H  0.10019465  0.89336113  0.08761650     0.39900
H1312       H  0.08458994  0.85746064  0.07191985     0.34800
C1313       C  0.17188013  0.60524869  0.43562241    -0.26900
C1314       C  0.14876398  0.61244904  0.44016535    -0.15000
C1315       C  0.13540594  0.60819887  0.47406495     0.35600
C1316       C  0.14553073  0.59765874  0.50230345    -0.26400
C1317       C  0.16914079  0.59113600  0.49819514    -0.15600
C1318       C  0.18193846  0.59434957  0.46394248     0.36700
N1319       N  0.20524778  0.58687672  0.45788316    -0.89900
H1320       H  0.18254938  0.60857628  0.40987772     0.17800
H1321       H  0.13511509  0.59534475  0.52803794     0.17800
N1322       N  0.11246411  0.61595209  0.48064587    -0.88900
H1323       H  0.21284312  0.59138871  0.43163874     0.35200
H1324       H  0.19535700  0.56343109  0.46126532     0.40300
H1325       H  0.12036925  0.63261694  0.50043585     0.39900
H1326       H  0.09311196  0.59666434  0.49026545     0.34800
C1327       C  0.29986681  0.53944568  0.61792504    -0.26900
C1328       C  0.28989933  0.55833038  0.63256144    -0.15000
C1329       C  0.31014249  0.58276293  0.65443032     0.35600
C1330       C  0.34047406  0.58985813  0.65764435    -0.26400
C1331       C  0.35160250  0.57377660  0.63845346    -0.15600
C1332       C  0.33061316  0.54712769  0.62031151     0.36700
N1333       N  0.34127435  0.53005623  0.60090650    -0.89900
H1334       H  0.28433322  0.52025869  0.60168261     0.17800
H1335       H  0.35633924  0.61041480  0.67169984     0.17800
N1336       N  0.30093076  0.60148579  0.67252423    -0.88900
H1337       H  0.32322988  0.51170963  0.58782265     0.35200
H1338       H  0.34965272  0.52087240  0.61935998     0.40300
H1339       H  0.28184426  0.58752809  0.68797772     0.39900
H1340       H  0.29492712  0.61243140  0.65367300     0.34800
C1341       C  0.14037959  0.97534019  0.71628933    -0.26900
C1342       C  0.15461978  0.51201808  0.70947448    -0.15000
C1343       C  0.17628589  0.52932746  0.73525724     0.35600
C1344       C  0.15477160  0.01632041  0.77220385    -0.26400
C1345       C  0.14305862  0.98536265  0.77922820    -0.15600
C1346       C  0.13480408  0.96453647  0.75098000     0.36700
N1347       N  0.12277969  0.93275329  0.75683243    -0.89900
H1348       H  0.13556348  0.95953728  0.69460870     0.17800
H1349       H  0.16113106  0.03221202  0.79408725     0.17800
N1350       N  0.20305435  0.55725620  0.72581735    -0.88900
H1351       H  0.10246804  0.92427400  0.77099834     0.35200
H1352       H  0.13829837  0.92997788  0.77214681     0.40300
H1353       H  0.22204145  0.55537350  0.73188333     0.39900
H1354       H  0.20388649  0.57457977  0.74151223     0.34800
C1355       C  0.09424690  0.91451579  0.52532372    -0.26900
C1356       C  0.09210453  0.92526999  0.49171609    -0.15000
C1357       C  0.09913304  0.95601924  0.48920888     0.35600
C1358       C  0.10940178  0.97498313  0.51903099    -0.26400
C1359       C  0.11377447  0.96482482  0.55175919    -0.15600
C1360       C  0.10509294  0.93390533  0.55507804     0.36700
N1361       N  0.10769009  0.92212011  0.58847117    -0.89900
H1362       H  0.08834621  0.89107467  0.52849321     0.17800
H1363       H  0.11601181  0.99862403  0.51574840     0.17800
N1364       N  0.09719911  0.96936929  0.45669510    -0.88900
H1365       H  0.12204650  0.91322512  0.58511289     0.35200
H1366       H  0.08615997  0.90428335  0.59549234     0.40300
H1367       H  0.07489162  0.95721300  0.44719260     0.39900
H1368       H  0.11228511  0.96888728  0.43826464     0.34800
C1369       C  0.26124837  0.50526658  0.46435867    -0.26900
C1370       C  0.27290074  0.98757839  0.47945264    -0.15000
C1371       C  0.26071679  0.97406139  0.51252786     0.35600
C1372       C  0.24314240  0.98309176  0.53119165    -0.26400
C1373       C  0.23131189  0.50186284  0.51546488    -0.15600
C1374       C  0.24502045  0.51583539  0.48331978     0.36700
N1375       N  0.24241258  0.54064683  0.46988696    -0.89900
H1376       H  0.27131957  0.51586476  0.43922601     0.17800
H1377       H  0.23450032  0.97333044  0.55708984     0.17800
N1378       N  0.26675881  0.95215012  0.52835463    -0.88900
H1379       H  0.23221168  0.53453176  0.44487626     0.35200
H1380       H  0.26433580  0.55929472  0.46673802     0.40300
H1381       H  0.29030157  0.96117708  0.52905716     0.39900
H1382       H  0.25682073  0.93235040  0.51309523     0.34800
C1383       C  0.41117512  0.85603271  0.00209360    -0.26900
C1384       C  0.41359439  0.82973640  0.99880214    -0.15000
C1385       C  0.40709888  0.81500537  0.96539078     0.35600
C1386       C  0.39611125  0.82526461  0.93760941    -0.26400
C1387       C  0.39155920  0.85007406  0.94187644    -0.15600
C1388       C  0.39999633  0.86613694  0.97427917     0.36700
N1389       N  0.39538707  0.89142027  0.97974870    -0.89900
H1390       H  0.41666028  0.86809930  0.02713345     0.17800
H1391       H  0.38961358  0.81283469  0.91276832     0.17800
N1392       N  0.41061917  0.78907666  0.95988245    -0.88900
H1393       H  0.40324833  0.90109217  0.00476580     0.35200
H1394       H  0.37194253  0.88303412  0.97971872     0.40300
H1395       H  0.43388105  0.79665872  0.96112512     0.39900
H1396       H  0.40352640  0.78013812  0.93441459     0.34800
C1397       C  0.24794780  0.74282860  0.95866419    -0.26900
C1398       C  0.26043081  0.77244604  0.97230163    -0.15000
C1399       C  0.25805333  0.77709839  0.00873521     0.35600
C1400       C  0.24355445  0.75181127  0.03086170    -0.26400
C1401       C  0.23235085  0.72253409  0.01715438    -0.15600
C1402       C  0.23397728  0.71775610  0.98088916     0.36700
N1403       N  0.22160976  0.68752310  0.96700597    -0.89900
H1404       H  0.24907144  0.73914707  0.93053157     0.17800
H1405       H  0.24245524  0.75497665  0.05915767     0.17800
N1406       N  0.27113692  0.80722533  0.02324100    -0.88900
H1407       H  0.22490501  0.68802184  0.93958715     0.35200
H1408       H  0.19810067  0.67612405  0.97114798     0.40300
H1409       H  0.29472587  0.81783023  0.02015717     0.39900
H1410       H  0.26703766  0.80639774  0.05050513     0.34800
C1411       C  0.16431309  0.75059054  0.83194813    -0.26900
C1412       C  0.15691383  0.72248591  0.84704934    -0.15000
C1413       C  0.18066518  0.71777840  0.85790611     0.35600
C1414       C  0.21093217  0.74225575  0.85693730    -0.26400
C1415       C  0.21751664  0.77152486  0.84707182    -0.15600
C1416       C  0.19425416  0.77540667  0.83285314     0.36700
N1417       N  0.20077443  0.80500630  0.82187163    -0.89900
H1418       H  0.14605225  0.75437561  0.82402475     0.17800
H1419       H  0.22894228  0.73929638  0.86776984     0.17800
N1420       N  0.17376610  0.68914905  0.87297443    -0.88900
H1421       H  0.18101778  0.80429442  0.81291325     0.35200
H1422       H  0.21547853  0.81122075  0.80014941     0.40300
H1423       H  0.16210701  0.68638334  0.89677997     0.39900
H1424       H  0.19379740  0.68936946  0.87955876     0.34800
C1425       C  0.22987672  0.91244576  0.82963740    -0.26900
C1426       C  0.23641813  0.93873573  0.84840847    -0.15000
C1427       C  0.26631826  0.95772953  0.86133246     0.35600
C1428       C  0.28758309  0.94799668  0.85964305    -0.26400
C1429       C  0.27936997  0.91935297  0.84577703    -0.15600
C1430       C  0.25126306  0.90286996  0.82749776     0.36700
N1431       N  0.24273911  0.87486249  0.80943659    -0.89900
H1432       H  0.20735083  0.89815565  0.81872404     0.17800
H1433       H  0.30899584  0.96097117  0.87359381     0.17800
N1434       N  0.27479305  0.98562549  0.87932621    -0.88900
H1435       H  0.26087108  0.87078306  0.80892630     0.35200
H1436       H  0.23849105  0.87752226  0.78297480     0.40300
H1437       H  0.27066186  0.99930821  0.86237548     0.39900
H1438       H  0.26108180  0.98073046  0.90173323     0.34800
C1439       C  0.37720347  0.97100826  0.02263171    -0.26900
C1440       C  0.35719436  0.96514073  0.05109530    -0.15000
C1441       C  0.32727661  0.93961127  0.04840343     0.35600
C1442       C  0.31825351  0.92135876  0.01744147    -0.26400
C1443       C  0.33817190  0.92760527  0.98869082    -0.15600
C1444       C  0.36816388  0.95304586  0.99160934     0.36700
N1445       N  0.38940969  0.96127169  0.96279594    -0.89900
H1446       H  0.39993653  0.99060921  0.02389668     0.17800
H1447       H  0.29536504  0.90204932  0.01583040     0.17800
N1448       N  0.30575653  0.93251600  0.07666140    -0.88900
H1449       H  0.41070381  0.97953969  0.96979947     0.35200
H1450       H  0.38144020  0.96891739  0.94203827     0.40300
H1451       H  0.31346756  0.92565534  0.09842367     0.39900
H1452       H  0.28452485  0.91404623  0.06986477     0.34800
C1453       C  0.37605942  0.89147166  0.52201552    -0.26900
C1454       C  0.35787069  0.88253243  0.55259471    -0.15000
C1455       C  0.33365725  0.88862419  0.55452395     0.35600
C1456       C  0.32654724  0.90057791  0.52508088    -0.26400
C1457       C  0.34280265  0.90669118  0.49304750    -0.15600
C1458       C  0.36902615  0.90364506  0.49237470     0.36700
N1459       N  0.38798190  0.91194592  0.46136301    -0.89900
H1460       H  0.39476846  0.88714912  0.52030782     0.17800
H1461       H  0.30724027  0.90394574  0.52701064     0.17800
N1462       N  0.31573662  0.88288039  0.58598267    -0.88900
H1463       H  0.40556231  0.90726842  0.46482436     0.35200
H1464       H  0.39840123  0.93548088  0.45854936     0.40300
H1465       H  0.33037930  0.89342862  0.60741918     0.39900
H1466       H  0.30292839  0.85956014  0.59055133     0.34800
C1467       C  0.26378723  0.72385747  0.51057569    -0.26900
C1468       C  0.27957566  0.75521877  0.51650211    -0.15000
C1469       C  0.26993787  0.77394498  0.50120452     0.35600
C1470       C  0.24435137  0.76083082  0.47990843    -0.26400
C1471       C  0.22825770  0.72934647  0.47391584    -0.15600
C1472       C  0.23789702  0.71063643  0.48936658     0.36700
N1473       N  0.22112579  0.67838146  0.48425935    -0.89900
H1474       H  0.27102087  0.70956352  0.52336928     0.17800
H1475       H  0.23745597  0.77546587  0.46731057     0.17800
N1476       N  0.28601223  0.80621868  0.50637223    -0.88900
H1477       H  0.21431946  0.66807596  0.50911853     0.35200
H1478       H  0.23572435  0.67184485  0.47305319     0.40300
H1479       H  0.30854832  0.81494342  0.49826418     0.39900
H1480       H  0.28592087  0.81085633  0.53335628     0.34800
C1481       C  0.25926546  0.65176149  0.65415160    -0.26900
C1482       C  0.23024370  0.64332745  0.64098554    -0.15000
C1483       C  0.22358238  0.66624994  0.63274872     0.35600
C1484       C  0.24716766  0.69696086  0.63376905    -0.26400
C1485       C  0.27728459  0.70479619  0.64160107    -0.15600
C1486       C  0.28306085  0.68216984  0.65365017     0.36700
N1487       N  0.31354249  0.68990590  0.66263525    -0.89900
H1488       H  0.26428229  0.63412355  0.66063078     0.17800
H1489       H  0.24271735  0.71443710  0.62458944     0.17800
N1490       N  0.19370592  0.65819740  0.62055713    -0.88900
H1491       H  0.31413601  0.67056402  0.67032907     0.35200
H1492       H  0.32013369  0.70425749  0.68474604     0.40300
H1493       H  0.19002717  0.64703121  0.59620087     0.39900
H1494       H  0.19250283  0.67771943  0.61574689     0.34800
C1495       C  0.35127349  0.87179532  0.75421883    -0.26900
C1496       C  0.36246973  0.86177811  0.78165625    -0.15000
C1497       C  0.37986801  0.84793451  0.77329700     0.35600
C1498       C  0.38312028  0.84196606  0.73769735    -0.26400
C1499       C  0.36932737  0.84940604  0.71056020    -0.15600
C1500       C  0.35432591  0.86545710  0.71879503     0.36700
N1501       N  0.34130869  0.87448281  0.69116933    -0.89900
H1502       H  0.33811198  0.88253627  0.76037193     0.17800
H1503       H  0.39500343  0.82993603  0.73141926     0.17800
N1504       N  0.39363206  0.83879510  0.80014427    -0.88900
H1505       H  0.35098603  0.89804818  0.69253506     0.35200
H1506       H  0.31800126  0.86453882  0.69607470     0.40300
H1507       H  0.39105225  0.84570348  0.82534314     0.39900
H1508       H  0.41705440  0.85035526  0.79536321     0.34800
C1509       C  0.40288505  0.73704657  0.66083063    -0.26900
C1510       C  0.42184283  0.76481613  0.64357083    -0.15000
C1511       C  0.45120519  0.77183964  0.63326641     0.35600
C1512       C  0.45970499  0.74969274  0.63646255    -0.26400
C1513       C  0.43883477  0.72035324  0.64861171    -0.15600
C1514       C  0.41087865  0.71446612  0.66278703     0.36700
N1515       N  0.38972272  0.68474259  0.67608484    -0.89900
H1516       H  0.38022695  0.73157894  0.66877044     0.17800
H1517       H  0.48119033  0.75422335  0.62522447     0.17800
N1518       N  0.47096230  0.79988941  0.61566459    -0.88900
H1519       H  0.36985951  0.68388243  0.68498092     0.35200
H1520       H  0.39967089  0.68099721  0.69824206     0.40300
H1521       H  0.47563108  0.79489694  0.59032048     0.39900
H1522       H  0.49142178  0.81094025  0.62974444     0.34800
C1523       C  0.45483070  0.85778345  0.49753188    -0.26900
C1524       C  0.43105264  0.82725549  0.49966409    -0.15000
C1525       C  0.42650151  0.80805264  0.47022267     0.35600
C1526       C  0.44594135  0.81957312  0.44043984    -0.26400
C1527       C  0.47054763  0.84971481  0.43914112    -0.15600
C1528       C  0.47447388  0.86899982  0.46805654     0.36700
N1529       N  0.49868020  0.89999061  0.46807586    -0.89900
H1530       H  0.45875456  0.87324790  0.51928641     0.17800
H1531       H  0.44257479  0.80427320  0.41869896     0.17800
N1532       N  0.40251256  0.77681099  0.47054003    -0.88900
H1533       H  0.51241890  0.90339899  0.49018674     0.35200
H1534       H  0.48915152  0.91383325  0.47087242     0.40300
H1535       H  0.40836944  0.76553286  0.48920260     0.39900
H1536       H  0.40118370  0.76641829  0.44614888     0.34800
Fe1537     Fe  0.82567512  0.29998920  0.61321693     1.65800
Fe1538     Fe  0.90317151  0.33755157  0.60477376     1.73200
Fe1539     Fe  0.85901229  0.26662346  0.57012591     1.54400
O1540       O  0.82262593  0.23568530  0.60118234    -0.82300
O1541       O  0.91967064  0.33862328  0.55430723    -0.80600
O1542       O  0.81142470  0.26071406  0.64134932    -0.84800
O1543       O  0.80035060  0.27511930  0.57100078    -0.79700
O1544       O  0.88764103  0.26326360  0.60436703    -0.81400
O1545       O  0.88757026  0.36590571  0.58439760    -0.84200
C1546       C  0.80562145  0.26719275  0.54137180     0.96600
C1547       C  0.80773171  0.23624484  0.62804936     1.04000
O1548       O  0.86295023  0.30150696  0.59642516    -1.13200
O1549       O  0.89399596  0.34354397  0.65696371    -0.75600
O1550       O  0.84416684  0.32484916  0.65807297    -0.79100
O1551       O  0.83001886  0.26770434  0.53405158    -0.79800
C1552       C  0.87007054  0.33954635  0.67218586     0.95500
O1553       O  0.83666244  0.33804718  0.58523289    -0.77700
O1554       O  0.92065760  0.31030215  0.62395613    -0.82900
C1555       C  0.91475517  0.31900507  0.53067360     0.98100
C1556       C  0.91080238  0.28166660  0.62217092     1.04000
O1557       O  0.89388176  0.29156299  0.53430556    -0.78600
C1558       C  0.86118110  0.36155858  0.57626272     1.02300
Fe1559     Fe  0.81173113  0.31793922  0.87435778     1.65800
Fe1560     Fe  0.84890641  0.39530491  0.88164530     1.73200
Fe1561     Fe  0.77702140  0.35193382  0.91361902     1.54400
O1562       O  0.74652390  0.31458125  0.88237329    -0.82300
O1563       O  0.84938035  0.41106883  0.93182348    -0.80600
O1564       O  0.77255280  0.30237306  0.84477548    -0.84800
O1565       O  0.78569950  0.29349842  0.91626068    -0.79700
O1566       O  0.77450361  0.38014393  0.87772609    -0.81400
O1567       O  0.87723468  0.38012523  0.90307418    -0.84200
C1568       C  0.77575855  0.29848134  0.94468505     0.96600
C1569       C  0.74758041  0.29847911  0.85700440     1.04000
O1570       O  0.81255359  0.35531401  0.88936019    -1.13200
O1571       O  0.85450594  0.38567335  0.82969050    -0.75600
O1572       O  0.83779624  0.33618682  0.82982325    -0.79100
O1573       O  0.77698937  0.32336432  0.95100212    -0.79800
C1574       C  0.85129108  0.36186909  0.81503178     0.95500
O1575       O  0.84920619  0.32936368  0.90438004    -0.77700
O1576       O  0.82263032  0.41380127  0.86246150    -0.82900
C1577       C  0.82958934  0.40748418  0.95448258     0.98100
C1578       C  0.79401477  0.40427173  0.86236962     1.04000
O1579       O  0.80161725  0.38768536  0.95000926    -0.78600
C1580       C  0.87245684  0.35416423  0.91339878     1.02300
Fe1581     Fe  0.69397445  0.00986981  0.60690312     1.65800
Fe1582     Fe  0.66420940  0.05565389  0.60493418     1.73200
Fe1583     Fe  0.73240458  0.07830096  0.56785222     1.54400
O1584       O  0.76201260  0.07825269  0.60554260    -0.82300
O1585       O  0.66912502  0.08051486  0.55916077    -0.80600
O1586       O  0.74041726  0.02874310  0.61639257    -0.84800
O1587       O  0.69957453  0.00091204  0.55580139    -0.79700
O1588       O  0.73285114  0.11354949  0.59478459    -0.81400
O1589       O  0.63539889  0.01757220  0.57509608    -0.84200
C1590       C  0.72169866  0.01787887  0.53591182     0.96600
C1591       C  0.76328822  0.05553783  0.61717117     1.04000
O1592       O  0.69733012  0.04834500  0.59386752    -1.13200
O1593       O  0.65377287  0.03124989  0.65267434    -0.75600
O1594       O  0.68787572  0.01641298  0.65874390    -0.79100
O1595       O  0.73665737  0.04652633  0.53905055    -0.79800
C1596       C  0.66693551  0.02025127  0.67097532     0.95500
O1597       O  0.64872169  0.48398332  0.60087109    -0.77700
O1598       O  0.69361645  0.09521080  0.63266522    -0.82900
C1599       C  0.68275468  0.08378231  0.52979294     0.98100
C1600       C  0.71941646  0.11631350  0.62170979     1.04000
O1601       O  0.70551990  0.08001132  0.52752076    -0.78600
C1602       C  0.63381285  0.48938021  0.57804932     1.02300
Fe1603     Fe  0.69045742  0.48703941  0.87867641     1.65800
Fe1604     Fe  0.61307308  0.44289898  0.88248334     1.73200
Fe1605     Fe  0.65845078  0.42042949  0.92170658     1.54400
O1606       O  0.69751938  0.42888606  0.89327109    -0.82300
O1607       O  0.59449600  0.42642878  0.93141081    -0.80600
O1608       O  0.70731097  0.46363843  0.85161852    -0.84800
O1609       O  0.71470916  0.48814166  0.92199759    -0.79700
O1610       O  0.63285445  0.38731995  0.88652211    -0.81400
O1611       O  0.62539172  0.48624024  0.90364437    -0.84200
C1612       C  0.70917450  0.47507804  0.95171297     0.96600
C1613       C  0.71247398  0.44436485  0.86631240     1.04000
O1614       O  0.65360925  0.44978451  0.89371235    -1.13200
O1615       O  0.62417893  0.45857393  0.83090847    -0.75600
O1616       O  0.67321118  0.49301586  0.83270064    -0.79100
O1617       O  0.68403462  0.45184860  0.95882903    -0.79800
C1618       C  0.64802323  0.47975609  0.81681576     0.95500
O1619       O  0.67666297  0.00983594  0.90288474    -0.77700
O1620       O  0.59893460  0.39837657  0.86347125    -0.82900
C1621       C  0.59893771  0.41244350  0.95600596     0.98100
C1622       C  0.61005816  0.38084236  0.86715539     1.04000
O1623       O  0.62111048  0.40770348  0.95504830    -0.78600
C1624       C  0.65123927  0.00696055  0.91143732     1.02300
Fe1625     Fe  0.99132463  0.17855797  0.61259078     1.65800
Fe1626     Fe  0.95037078  0.10118103  0.60673870     1.73200
Fe1627     Fe  0.92292040  0.14414300  0.57311778     1.54400
O1628       O  0.93007271  0.18150546  0.60358576    -0.82300
O1629       O  0.93588256  0.08517371  0.55630564    -0.80600
O1630       O  0.96722204  0.19298630  0.64267693    -0.84800
O1631       O  0.98946329  0.20330229  0.57104527    -0.79700
O1632       O  0.89160296  0.11681492  0.60876575    -0.81400
O1633       O  0.99488784  0.11667316  0.58686316    -0.84200
C1634       C  0.97475051  0.19740856  0.54231019     0.96600
C1635       C  0.94637464  0.19682745  0.62989371     1.04000
O1636       O  0.95459757  0.14094365  0.59801456    -1.13200
O1637       O  0.96473011  0.11148619  0.65909071    -0.75600
O1638       O  0.99956404  0.16047410  0.65664861    -0.79100
O1639       O  0.95225585  0.17160647  0.53564389    -0.79800
C1640       C  0.98662396  0.13529868  0.67259646     0.95500
O1641       O  0.51747422  0.16965648  0.58408270    -0.77700
O1642       O  0.90458165  0.08247721  0.62428326    -0.82900
C1643       C  0.91951257  0.08860472  0.53380563     0.98100
C1644       C  0.88580387  0.09227921  0.62358165     1.04000
O1645       O  0.91128674  0.10808827  0.53816561    -0.78600
C1646       C  0.51663199  0.14502306  0.57660146     1.02300
Fe1647     Fe  0.52279308  0.18901103  0.87841649     1.65800
Fe1648     Fe  0.56533993  0.15570690  0.88380717     1.73200
Fe1649     Fe  0.59241742  0.22640173  0.91558807     1.54400
O1650       O  0.59338913  0.25479057  0.87567858    -0.82300
O1651       O  0.59026325  0.16149310  0.92981124    -0.80600
O1652       O  0.54385136  0.23487266  0.86567743    -0.84800
O1653       O  0.51600991  0.19851118  0.92876093    -0.79700
O1654       O  0.62613858  0.22321911  0.88991174    -0.81400
O1655       O  0.52688259  0.13019515  0.91529009    -0.84200
C1656       C  0.53433894  0.22120804  0.94711476     0.96600
C1657       C  0.57100418  0.25709849  0.86466953     1.04000
O1658       O  0.56063223  0.19082774  0.89174810    -1.13200
O1659       O  0.54016701  0.14385687  0.83639199    -0.75600
O1660       O  0.52705334  0.17892387  0.82722461    -0.79100
O1661       O  0.56289096  0.23467191  0.94324628    -0.79800
C1662       C  0.52950030  0.15664309  0.81686926     0.95500
O1663       O  0.99465191  0.14229726  0.88970904    -0.77700
O1664       O  0.60560695  0.18218008  0.85471910    -0.82900
C1665       C  0.59475217  0.17692265  0.95802043     0.98100
C1666       C  0.62782791  0.20804551  0.86422314     1.04000
O1667       O  0.59291233  0.20082038  0.95807255    -0.78600
C1668       C  0.99975461  0.12602403  0.91080150     1.02300
Fe1669     Fe  0.68357086  0.18793872  0.38077307     1.65800
Fe1670     Fe  0.65236171  0.22495124  0.41926360     1.73200
Fe1671     Fe  0.60750356  0.15654296  0.38154022     1.54400
O1672       O  0.62306524  0.14715719  0.33351489    -0.82300
O1673       O  0.62350092  0.19731582  0.45897146    -0.80600
O1674       O  0.67176597  0.18308106  0.32884962    -0.84800
O1675       O  0.66156036  0.14143050  0.38707808    -0.79700
O1676       O  0.59598659  0.18552295  0.35469391    -0.81400
O1677       O  0.68832989  0.22961918  0.44818088    -0.84200
C1678       C  0.64189962  0.12712401  0.41081269     0.96600
C1679       C  0.64795680  0.16084620  0.31594250     1.04000
O1680       O  0.64778120  0.19038250  0.39302430    -1.13200
O1681       O  0.68264038  0.25526847  0.38209558    -0.75600
O1682       O  0.71115952  0.23426715  0.37316280    -0.79100
O1683       O  0.61768321  0.12850869  0.41174766    -0.79800
C1684       C  0.70746345  0.25704414  0.37245266     0.95500
O1685       O  0.69691658  0.19267322  0.43230345    -0.77700
O1686       O  0.61740094  0.22483173  0.39256060    -0.82900
C1687       C  0.59711825  0.17389441  0.45688710     0.98100
C1688       C  0.60028185  0.21102621  0.36638466     1.04000
O1689       O  0.58672974  0.16019911  0.42752904    -0.78600
C1690       C  0.70221017  0.21504935  0.45170924     1.02300
Fe1691     Fe  0.69772713  0.17707295  0.11198845     1.65800
Fe1692     Fe  0.73304117  0.14745983  0.06500281     1.73200
Fe1693     Fe  0.66581949  0.10090902  0.10405648     1.54400
O1694       O  0.65627947  0.11308658  0.15407680    -0.82300
O1695       O  0.70443976  0.11958617  0.02503463    -0.80600
O1696       O  0.69219259  0.16127640  0.16234174    -0.84800
O1697       O  0.65114770  0.15599179  0.10333438    -0.79700
O1698       O  0.69571730  0.08903637  0.12760419    -0.81400
O1699       O  0.73607439  0.18388842  0.03865468    -0.84200
C1700       C  0.63650624  0.13665465  0.07911296     0.96600
C1701       C  0.67086002  0.13637265  0.17391558     1.04000
O1702       O  0.69940001  0.14191955  0.09416912    -1.13200
O1703       O  0.76471660  0.17631367  0.10197242    -0.75600
O1704       O  0.74419334  0.20316939  0.12169792    -0.79100
O1705       O  0.63737598  0.11224444  0.07726479    -0.79800
C1706       C  0.76673584  0.19917579  0.11819578     0.95500
O1707       O  0.70363153  0.19581471  0.06332751    -0.77700
O1708       O  0.73411188  0.11189989  0.08866310    -0.82900
C1709       C  0.68199090  0.09267145  0.02677308     0.98100
C1710       C  0.72090124  0.09378781  0.11422114     1.04000
O1711       O  0.66863622  0.08175826  0.05613025    -0.78600
C1712       C  0.72266948  0.19907617  0.03981023     1.02300
Fe1713     Fe  0.81326122  0.48402093  0.38359534     1.65800
Fe1714     Fe  0.77824819  0.41548707  0.42265457     1.73200
Fe1715     Fe  0.84728345  0.44209234  0.38612727     1.54400
O1716       O  0.85755483  0.46681584  0.33857848    -0.82300
O1717       O  0.80637302  0.41689215  0.46345778    -0.80600
O1718       O  0.82155486  0.47886645  0.33207171    -0.84800
O1719       O  0.85582476  0.00950635  0.39265079    -0.79700
O1720       O  0.81970948  0.40146608  0.35852203    -0.81400
O1721       O  0.77043501  0.44511865  0.45034955    -0.84200
C1722       C  0.87183752  0.00449352  0.41432209     0.96600
C1723       C  0.84398516  0.47732705  0.32019138     1.04000
O1724       O  0.81241596  0.44676417  0.39661864    -1.13200
O1725       O  0.74765434  0.41284015  0.38433092    -0.75600
O1726       O  0.76692188  0.46200052  0.37249423    -0.79100
O1727       O  0.87394813  0.48075610  0.41673117    -0.79800
C1728       C  0.74492388  0.43467995  0.37233256     0.95500
O1729       O  0.80522408  0.49186911  0.43420513    -0.77700
O1730       O  0.78111277  0.38158762  0.39732442    -0.82900
C1731       C  0.82984279  0.41426337  0.46104620     0.98100
C1732       C  0.79516910  0.37918949  0.37090196     1.04000
O1733       O  0.84312971  0.41748187  0.43154673    -0.78600
C1734       C  0.78328757  0.47358376  0.45346144     1.02300
Fe1735     Fe  0.83038621  0.01119305  0.11133807     1.65800
Fe1736     Fe  0.86375212  0.07756637  0.06749949     1.73200
Fe1737     Fe  0.90687162  0.05336693  0.10702539     1.54400
O1738       O  0.89229855  0.03216648  0.15675517    -0.82300
O1739       O  0.89132455  0.07601718  0.02787159    -0.80600
O1740       O  0.84424614  0.02124638  0.16266886    -0.84800
O1741       O  0.84869221  0.48247282  0.10351633    -0.79700
O1742       O  0.92106822  0.09583678  0.13073826    -0.81400
O1743       O  0.82696567  0.04523461  0.04046703    -0.84200
C1744       C  0.86793505  0.48703940  0.07943738     0.96600
C1745       C  0.86868463  0.02458015  0.17557343     1.04000
O1746       O  0.86705879  0.04794663  0.09591527    -1.13200
O1747       O  0.83494862  0.08107274  0.10392964    -0.75600
O1748       O  0.80486654  0.03238316  0.11760863    -0.79100
O1749       O  0.89393221  0.01280982  0.08025678    -0.79800
C1750       C  0.80995697  0.05942062  0.11575437     0.95500
O1751       O  0.81508848  0.99965779  0.06082288    -0.77700
O1752       O  0.90001552  0.11319013  0.09213700    -0.82900
C1753       C  0.91710947  0.07788510  0.03003297     0.98100
C1754       C  0.91772977  0.11713283  0.11778021     1.04000
O1755       O  0.92712498  0.07452164  0.05946125    -0.78600
C1756       C  0.81208996  0.01652648  0.03874435     1.02300
Fe1757     Fe  0.99630165  0.30820578  0.10758810     1.65800
Fe1758     Fe  0.92808830  0.27066943  0.06792009     1.73200
Fe1759     Fe  0.95192510  0.33952696  0.10435687     1.54400
O1760       O  0.97614156  0.34972280  0.15239276    -0.82300
O1761       O  0.92679667  0.29778946  0.02750859    -0.80600
O1762       O  0.98863985  0.31404085  0.15899778    -0.84800
O1763       O  0.51924636  0.34985762  0.09870261    -0.79700
O1764       O  0.91099979  0.31081843  0.13109395    -0.81400
O1765       O  0.95976373  0.26606326  0.03965812    -0.84200
C1766       C  0.51378367  0.36358954  0.07464648     0.96600
C1767       C  0.98683506  0.33632954  0.17080545     1.04000
O1768       O  0.95821786  0.30559920  0.09398331    -1.13200
O1769       O  0.92750357  0.24046507  0.10554938    -0.75600
O1770       O  0.97710956  0.26206039  0.11628629    -0.79100
O1771       O  0.99091579  0.36733844  0.07468177    -0.79800
C1772       C  0.95047937  0.23904587  0.11615447     0.95500
O1773       O  0.00568231  0.30245646  0.05649043    -0.77700
O1774       O  0.89315043  0.27081643  0.09428890    -0.82900
C1775       C  0.92404780  0.32119065  0.02923914     0.98100
C1776       C  0.88978977  0.28494809  0.11998424     1.04000
O1777       O  0.92792778  0.33536531  0.05827543    -0.78600
C1778       C  0.98848433  0.28019798  0.03679858     1.02300
Fe1779     Fe  0.51519174  0.31774805  0.37630481     1.65800
Fe1780     Fe  0.58068959  0.34855554  0.42345165     1.73200
Fe1781     Fe  0.56015055  0.39384625  0.38265825     1.54400
O1782       O  0.53734084  0.38100567  0.33369555    -0.82300
O1783       O  0.58119229  0.37801225  0.46241233    -0.80600
O1784       O  0.52527106  0.33309148  0.32556699    -0.84800
O1785       O  0.99109647  0.33872351  0.38298931    -0.79700
O1786       O  0.60133790  0.40481345  0.35787235    -0.81400
O1787       O  0.54691207  0.31348295  0.45144705    -0.84200
C1788       C  0.99598940  0.35756609  0.40799362     0.96600
C1789       C  0.52912526  0.35793497  0.31387215     1.04000
O1790       O  0.55251253  0.35315501  0.39354316    -1.13200
O1791       O  0.58250794  0.31794168  0.38819483    -0.75600
O1792       O  0.53529420  0.29167189  0.36672808    -0.79100
O1793       O  0.52091535  0.38279959  0.41127526    -0.79800
C1794       C  0.56156137  0.29516132  0.37158688     0.95500
O1795       O  0.50245818  0.29955996  0.42521792    -0.77700
O1796       O  0.61726670  0.38311948  0.39764807    -0.82900
C1797       C  0.58600474  0.40483618  0.45881170     0.98100
C1798       C  0.62185095  0.40024101  0.37112597     1.04000
O1799       O  0.58375371  0.41435602  0.42870584    -0.78600
C1800       C  0.51815931  0.29781349  0.44990484     1.02300
C1801       C  0.52647652  0.34556067  0.21551704    -0.26900
C1802       C  0.99997577  0.34777096  0.20618144    -0.15000
C1803       C  0.98609434  0.35681833  0.23205426     0.35600
C1804       C  0.99776469  0.36263012  0.26688684    -0.26400
C1805       C  0.52240588  0.35883609  0.27615186    -0.15600
C1806       C  0.53789682  0.35214068  0.24995641     0.36700
N1807       N  0.56502545  0.35138586  0.25778907    -0.89900
H1808       H  0.53823245  0.33964062  0.19594021     0.17800
H1809       H  0.98618351  0.36766007  0.28759043     0.17800
N1810       N  0.95927351  0.35807759  0.22360775    -0.88900
H1811       H  0.56003263  0.33448698  0.27654630     0.35200
H1812       H  0.58096833  0.37234844  0.26868505     0.40300
H1813       H  0.96563593  0.37590616  0.20574289     0.39900
H1814       H  0.95111968  0.36364010  0.24615786     0.34800
C1815       C  0.95868849  0.16953324  0.11036333    -0.26900
C1816       C  0.93430735  0.14858184  0.13117722    -0.15000
C1817       C  0.91844368  0.15899048  0.15227407     0.35600
C1818       C  0.92469153  0.18916048  0.14859268    -0.26400
C1819       C  0.94714876  0.20919610  0.12496383    -0.15600
C1820       C  0.96519419  0.19960175  0.10704375     0.36700
N1821       N  0.98835378  0.21954265  0.08278075    -0.89900
H1822       H  0.97049416  0.16167255  0.09335473     0.17800
H1823       H  0.91131215  0.19667798  0.16309837     0.17800
N1824       N  0.89509701  0.13839387  0.17610661    -0.88900
H1825       H  0.98292089  0.20958671  0.05758510     0.35200
H1826       H  0.00892933  0.22147181  0.09060464     0.40300
H1827       H  0.87787256  0.12095586  0.16113713     0.39900
H1828       H  0.88528142  0.14933852  0.18937466     0.34800
C1829       C  0.66193086  0.39419609  0.34393589    -0.26900
C1830       C  0.65297197  0.41439533  0.35670855    -0.15000
C1831       C  0.67565614  0.44356650  0.36830327     0.35600
C1832       C  0.70611246  0.45061245  0.36974053    -0.26400
C1833       C  0.71443259  0.42891625  0.36108929    -0.15600
C1834       C  0.69220013  0.40093178  0.34664003     0.36700
N1835       N  0.69986818  0.37865051  0.33627526    -0.89900
H1836       H  0.64471653  0.37158442  0.33555551     0.17800
H1837       H  0.72289082  0.47230445  0.38089819     0.17800
N1838       N  0.66833569  0.46537513  0.38217000    -0.88900
H1839       H  0.69408454  0.37336488  0.30956538     0.35200
H1840       H  0.68659178  0.35900047  0.35111264     0.40300
H1841       H  0.64517312  0.45772116  0.37958506     0.39900
H1842       H  0.67962179  0.48487823  0.36655675     0.34800
C1843       C  0.87331061  0.48858605  0.22500897    -0.26900
C1844       C  0.86832168  0.01755276  0.21349537    -0.15000
C1845       C  0.85461455  0.02770481  0.23811111     0.35600
C1846       C  0.84769628  0.01506666  0.27210414    -0.26400
C1847       C  0.85497732  0.48985882  0.28433530    -0.15600
C1848       C  0.86655546  0.47715856  0.25994579     0.36700
N1849       N  0.87008279  0.45201278  0.27013573    -0.89900
H1850       H  0.88048044  0.47786153  0.20549208     0.17800
H1851       H  0.83672710  0.02272798  0.29067691     0.17800
N1852       N  0.84685594  0.05011220  0.22800346    -0.88900
H1853       H  0.87892836  0.44546951  0.24909947     0.35200
H1854       H  0.84842820  0.43358015  0.27537682     0.40300
H1855       H  0.86711916  0.07023404  0.22245231     0.39900
H1856       H  0.83654297  0.05488348  0.24905990     0.34800
C1857       C  0.80631825  0.25390082  0.12442392    -0.26900
C1858       C  0.79706971  0.22326775  0.13089976    -0.15000
C1859       C  0.81846866  0.21614850  0.14423551     0.35600
C1860       C  0.84907672  0.23903091  0.14734833    -0.26400
C1861       C  0.85910957  0.26879464  0.13577039    -0.15600
C1862       C  0.83732343  0.27668995  0.12593874     0.36700
N1863       N  0.84696667  0.30707612  0.11448236    -0.89900
H1864       H  0.78987071  0.25957876  0.11450116     0.17800
H1865       H  0.86567056  0.23265260  0.15461510     0.17800
N1866       N  0.80951491  0.18541873  0.15278499    -0.88900
H1867       H  0.82813141  0.30918600  0.10827756     0.35200
H1868       H  0.85927314  0.31099257  0.09095461     0.40300
H1869       H  0.81516534  0.18481075  0.17928325     0.39900
H1870       H  0.82217609  0.17890810  0.13704655     0.34800
C1871       C  0.76431745  0.09625408  0.14532887    -0.26900
C1872       C  0.73686771  0.07826653  0.12699199    -0.15000
C1873       C  0.73226260  0.05164790  0.10962031     0.35600
C1874       C  0.75589947  0.04506730  0.10881957    -0.26400
C1875       C  0.78446951  0.06478157  0.12402962    -0.15600
C1876       C  0.78819026  0.09007725  0.14363367     0.36700
N1877       N  0.81615299  0.11038997  0.16115430    -0.89900
H1878       H  0.76840729  0.11705886  0.15806344     0.17800
H1879       H  0.75261176  0.02551849  0.09372383     0.17800
N1880       N  0.70505202  0.03233998  0.08980193    -0.88900
H1881       H  0.83320417  0.12082095  0.14205896     0.35200
H1882       H  0.82162384  0.09771641  0.17815320     0.40300
H1883       H  0.68902154  0.03918329  0.09270740     0.39900
H1884       H  0.69516854  0.01061400  0.10077711     0.34800
C1885       C  0.78593424  0.32757080  0.37442881    -0.26900
C1886       C  0.78071663  0.34831425  0.35607279    -0.15000
C1887       C  0.75300729  0.33735407  0.33752752     0.35600
C1888       C  0.72976498  0.30702187  0.34136113    -0.26400
C1889       C  0.73390904  0.28697804  0.36273721    -0.15600
C1890       C  0.76289313  0.29698241  0.37797298     0.36700
N1891       N  0.76786642  0.27700263  0.40011117    -0.89900
H1892       H  0.80678736  0.33601319  0.38950222     0.17800
H1893       H  0.70789766  0.29948017  0.32898641     0.17800
N1894       N  0.74722703  0.35729221  0.31668970    -0.88900
H1895       H  0.78931587  0.28866539  0.41202674     0.35200
H1896       H  0.76811686  0.26062175  0.38365800     0.40300
H1897       H  0.76395726  0.36677529  0.29705644     0.39900
H1898       H  0.74943124  0.37493001  0.33285249     0.34800
C1899       C  0.63342972  0.12946835  0.22100438    -0.26900
C1900       C  0.66279725  0.13589778  0.21160372    -0.15000
C1901       C  0.68605572  0.14797961  0.23723681     0.35600
C1902       C  0.67992703  0.15466425  0.27120871    -0.26400
C1903       C  0.65108577  0.15004215  0.28034257    -0.15600
C1904       C  0.62737093  0.13655826  0.25502664     0.36700
N1905       N  0.59757414  0.13147901  0.26227131    -0.89900
H1906       H  0.61563784  0.12080102  0.20112736     0.17800
H1907       H  0.69818021  0.16428705  0.29051355     0.17800
N1908       N  0.71620025  0.15450315  0.22812296    -0.88900
H1909       H  0.59950039  0.15211950  0.26976158     0.35200
H1910       H  0.58829628  0.11623042  0.28333350     0.40300
H1911       H  0.71494213  0.13387928  0.22220236     0.39900
H1912       H  0.73090543  0.16382946  0.24976527     0.34800
C1913       C  0.59564943  0.27886076  0.34397161    -0.26900
C1914       C  0.56754285  0.27086086  0.35939869    -0.15000
C1915       C  0.54691815  0.23987923  0.36696949     0.35600
C1916       C  0.55616707  0.21825832  0.36234799    -0.26400
C1917       C  0.58565955  0.22703087  0.35081429    -0.15600
C1918       C  0.60469865  0.25729133  0.33900195     0.36700
N1919       N  0.63461860  0.26747585  0.32507051    -0.89900
H1920       H  0.61139551  0.30239098  0.33738072     0.17800
H1921       H  0.54173258  0.19534982  0.37205283     0.17800
N1922       N  0.51782167  0.23091824  0.38254951    -0.88900
H1923       H  0.63544051  0.27585453  0.29958741     0.35200
H1924       H  0.63836641  0.24929211  0.32185236     0.40300
H1925       H  0.52183441  0.24076196  0.40776668     0.39900
H1926       H  0.50535185  0.20742327  0.38634874     0.34800
C1927       C  0.59677632  0.13615988  0.99250752    -0.26900
C1928       C  0.60233095  0.16611947  0.99141263    -0.15000
C1929       C  0.61543511  0.18462980  0.02185408     0.35600
C1930       C  0.62421065  0.17358645  0.05087230    -0.26400
C1931       C  0.62058590  0.14429909  0.05093755    -0.15600
C1932       C  0.60572438  0.12516953  0.02133861     0.36700
N1933       N  0.59983290  0.09464782  0.01901632    -0.92300
H1934       H  0.58596083  0.12106911  0.97018103     0.17800
H1935       H  0.63529609  0.18882143  0.07300182     0.17800
N1936       N  0.62120301  0.21510866  0.02392226    -0.88900
H1937       H  0.58758567  0.08268049  0.04141442     0.35200
H1938       H  0.62046604  0.09495558  0.01774660     0.40300
H1939       H  0.60054348  0.21468463  0.02185351     0.39900
H1940       H  0.63548682  0.22765029  0.00300284     0.34800
C1941       C  0.98419559  0.09739271  0.96792974    -0.26900
C1942       C  0.97573183  0.10682007  0.93722234    -0.15000
C1943       C  0.94592168  0.10228069  0.93540989     0.35600
C1944       C  0.92690262  0.09184938  0.96551285    -0.26400
C1945       C  0.93653239  0.08517149  0.99743930    -0.15600
C1946       C  0.96500249  0.08653358  0.99772110     0.36700
N1947       N  0.97503861  0.07758694  0.02840822    -0.89900
H1948       H  0.00661978  0.10001256  0.96976683     0.17800
H1949       H  0.90470945  0.08979689  0.96421116     0.17800
N1950       N  0.93527497  0.10905859  0.90338501    -0.88900
H1951       H  0.99562503  0.09613435  0.03684948     0.35200
H1952       H  0.97912776  0.06022708  0.02093181     0.40300
H1953       H  0.91307107  0.10479884  0.90654452     0.39900
H1954       H  0.93439039  0.09411006  0.88376781     0.34800
C1955       C  0.53748071  0.26603042  0.97511078    -0.26900
C1956       C  0.52211277  0.23429735  0.97163713    -0.15000
C1957       C  0.49414700  0.21622804  0.98863563     0.35600
C1958       C  0.98205796  0.24764636  0.98556533    -0.26400
C1959       C  0.00153457  0.26802480  0.01146745    -0.15600
C1960       C  0.52541608  0.28008647  0.99552436     0.36700
N1961       N  0.54180102  0.31259856  0.99745157    -0.89900
H1962       H  0.55870386  0.28010001  0.96119957     0.17800
H1963       H  0.95951209  0.24439517  0.98191203     0.17800
N1964       N  0.47854615  0.18375563  0.98608694    -0.88900
H1965       H  0.54912945  0.31936352  0.02346610     0.35200
H1966       H  0.05687746  0.31418452  0.03674685     0.40300
H1967       H  0.45697493  0.17627419  0.97538801     0.39900
H1968       H  0.47570778  0.17492034  0.01169442     0.34800
C1969       C  0.97679660  0.12228345  0.73657865    -0.26900
C1970       C  0.99764328  0.13476211  0.70860228    -0.15000
C1971       C  0.52991235  0.15214179  0.71764987     0.35600
C1972       C  0.53986120  0.15696216  0.75301352    -0.26400
C1973       C  0.51894879  0.14527950  0.78084614    -0.15600
C1974       C  0.98682766  0.12764404  0.77181547     0.36700
N1975       N  0.96463092  0.11616353  0.79963215    -0.89900
H1976       H  0.95259231  0.11018668  0.73113805     0.17800
H1977       H  0.56385701  0.17121087  0.75894599     0.17800
N1978       N  0.55158779  0.16524596  0.68925196    -0.88900
H1979       H  0.96688677  0.13446278  0.81458600     0.35200
H1980       H  0.96921766  0.10253016  0.81610698     0.40300
H1981       H  0.55010695  0.14739293  0.67403978     0.39900
H1982       H  0.57376224  0.17723778  0.69921677     0.34800
C1983       C  0.53033417  0.12836996  0.52089280    -0.26900
C1984       C  0.53978126  0.14749280  0.55068904    -0.15000
C1985       C  0.56934176  0.17313227  0.55092295     0.35600
C1986       C  0.58793711  0.18045611  0.52077378    -0.26400
C1987       C  0.57770567  0.16284089  0.48963510    -0.15600
C1988       C  0.54891261  0.13560855  0.49042731     0.36700
N1989       N  0.53807038  0.11580847  0.46009003    -0.89900
H1990       H  0.50755243  0.10876814  0.52043714     0.17800
H1991       H  0.61012465  0.20086927  0.52145770     0.17800
N1992       N  0.58021619  0.19246406  0.58150554    -0.88900
H1993       H  0.51617623  0.09750601  0.46462668     0.35200
H1994       H  0.55214217  0.10657372  0.45689244     0.40300
H1995       H  0.58573880  0.21432937  0.57383172     0.39900
H1996       H  0.60015035  0.19338104  0.59013498     0.34800
C1997       C  0.50181387  0.25495140  0.53422378    -0.26900
C1998       C  0.98297995  0.22221208  0.51747829    -0.15000
C1999       C  0.97428467  0.21695144  0.48147796     0.35600
C2000       C  0.98268707  0.24185786  0.45948908    -0.26400
C2001       C  0.50276542  0.27426066  0.47599683    -0.15600
C2002       C  0.51142286  0.27968023  0.51170008     0.36700
N2003       N  0.53041473  0.31018427  0.52454493    -0.89900
H2004       H  0.50842482  0.25908166  0.56187998     0.17800
H2005       H  0.97746960  0.23824900  0.43142704     0.17800
N2006       N  0.95819984  0.18667822  0.46708863    -0.88900
H2007       H  0.53480871  0.31016684  0.55160822     0.35200
H2008       H  0.51822247  0.32149496  0.52181095     0.40300
H2009       H  0.97270337  0.17781017  0.46848217     0.39900
H2010       H  0.95338101  0.18705483  0.44020962     0.34800
C2011       C  0.89169547  0.05638829  0.44065584    -0.26900
C2012       C  0.88827882  0.02725404  0.44325971    -0.15000
C2013       C  0.89641255  0.01929229  0.47583246     0.35600
C2014       C  0.90699358  0.03985262  0.50422581    -0.26400
C2015       C  0.90935006  0.06841862  0.50192980    -0.15600
C2016       C  0.90200272  0.07682759  0.46949130     0.36700
N2017       N  0.90513563  0.10616148  0.46552105    -0.89900
H2018       H  0.88560254  0.06320428  0.41629785     0.17800
H2019       H  0.91242648  0.03283471  0.52890708     0.17800
N2020       N  0.89294917  0.99005052  0.48183897    -0.88900
H2021       H  0.88395248  0.10311270  0.45841974     0.35200
H2022       H  0.92027101  0.11729757  0.44467322     0.40300
H2023       H  0.90630413  0.98663174  0.46344665     0.39900
H2024       H  0.87009357  0.97356510  0.47864470     0.34800
C2025       C  0.60512615  0.30847999  0.83946745    -0.26900
C2026       C  0.57658024  0.28745764  0.85333884    -0.15000
C2027       C  0.55597840  0.29753533  0.86215898     0.35600
C2028       C  0.56585923  0.32882741  0.86088185    -0.26400
C2029       C  0.59578112  0.35009481  0.85131037    -0.15600
C2030       C  0.61482719  0.33952862  0.83839989     0.36700
N2031       N  0.64524823  0.36073835  0.82731583    -0.89900
H2032       H  0.62095470  0.30114038  0.83198330     0.17800
H2033       H  0.55132071  0.33684365  0.87126045     0.17800
N2034       N  0.52626506  0.27657086  0.87584894    -0.88900
H2035       H  0.64795458  0.35529708  0.80133680     0.35200
H2036       H  0.66027263  0.35791315  0.84350995     0.40300
H2037       H  0.51356503  0.26217891  0.85502673     0.39900
H2038       H  0.51496672  0.28797330  0.88359629     0.34800
C2039       C  0.67807612  0.06027867  0.93333136    -0.26900
C2040       C  0.65309407  0.03063247  0.93635706    -0.15000
C2041       C  0.63569020  0.02279934  0.96769445     0.35600
C2042       C  0.64468178  0.04382923  0.99598027    -0.26400
C2043       C  0.67121785  0.07282087  0.99409488    -0.15600
C2044       C  0.68736474  0.08118850  0.96140498     0.36700
N2045       N  0.71409372  0.11017923  0.95598644    -0.89900
H2046       H  0.69185602  0.06671682  0.90949829     0.17800
H2047       H  0.63140827  0.03677202  0.02016932     0.17800
N2048       N  0.60843158  0.49431682  0.97325893    -0.88900
H2049       H  0.73074830  0.11294048  0.97419096     0.35200
H2050       H  0.70854434  0.12709127  0.95966589     0.40300
H2051       H  0.58973941  0.49679738  0.97907266     0.39900
H2052       H  0.61183073  0.48343374  0.99469684     0.34800
C2053       C  0.76217666  0.00986660  0.96344577    -0.26900
C2054       C  0.73415759  0.48635536  0.97687035    -0.15000
C2055       C  0.73722120  0.46669041  0.00030098     0.35600
C2056       C  0.76386741  0.47761029  0.01984242    -0.26400
C2057       C  0.78815891  0.00274053  0.01230673    -0.15600
C2058       C  0.78882386  0.01947313  0.98242673     0.36700
N2059       N  0.81645462  0.04632046  0.97178256    -0.89900
H2060       H  0.76263821  0.02343748  0.94116890     0.17800
H2061       H  0.76557912  0.46251859  0.03862401     0.17800
N2062       N  0.71376917  0.43553686  0.00377765    -0.88900
H2063       H  0.81289617  0.05594915  0.94920028     0.35200
H2064       H  0.83205111  0.03964797  0.96462113     0.40300
H2065       H  0.72300428  0.42193540  0.99725165     0.39900
H2066       H  0.70702285  0.43159531  0.03035020     0.34800
C2067       C  0.52835827  0.38716973  0.01430251    -0.26900
C2068       C  0.53714223  0.37980584  0.04631781    -0.15000
C2069       C  0.56681671  0.38400242  0.04851325     0.35600
C2070       C  0.58645252  0.39469429  0.01904401    -0.26400
C2071       C  0.57743758  0.40146545  0.98684832    -0.15600
C2072       C  0.54793460  0.39766867  0.98475555     0.36700
N2073       N  0.53712962  0.40330896  0.95227117    -0.89900
H2074       H  0.50559603  0.38354650  0.01151395     0.17800
H2075       H  0.60894899  0.39758075  0.02146786     0.17800
N2076       N  0.57718667  0.37707387  0.08047447    -0.88900
H2077       H  0.53103197  0.41969614  0.95719042     0.35200
H2078       H  0.51756818  0.38324508  0.94456918     0.40300
H2079       H  0.59686641  0.39670149  0.08887241     0.39900
H2080       H  0.58297238  0.36059578  0.07459335     0.34800
C2081       C  0.67574903  0.10936510  0.43623786    -0.26900
C2082       C  0.64911013  0.11116325  0.43917550    -0.15000
C2083       C  0.63285169  0.10208340  0.47147090     0.35600
C2084       C  0.64395580  0.09278694  0.50002689    -0.26400
C2085       C  0.67132043  0.09231306  0.49766535    -0.15600
C2086       C  0.68692005  0.10014743  0.46486411     0.36700
N2087       N  0.71458202  0.09963191  0.46053743    -0.89900
H2088       H  0.68880891  0.11625535  0.41188290     0.17800
H2089       H  0.63114246  0.08643371  0.52455791     0.17800
N2090       N  0.60556374  0.10325023  0.47608390    -0.88900
H2091       H  0.73178153  0.12139636  0.45334962     0.35200
H2092       H  0.71158417  0.08485670  0.43964687     0.40300
H2093       H  0.60880838  0.11783612  0.49728779     0.39900
H2094       H  0.58803204  0.08152051  0.48286131     0.34800
C2095       C  0.80281143  0.04057895  0.61534232    -0.26900
C2096       C  0.79303244  0.05987701  0.62916008    -0.15000
C2097       C  0.81324840  0.08454579  0.65076627     0.35600
C2098       C  0.84316028  0.09089762  0.65538774    -0.26400
C2099       C  0.85424663  0.07451391  0.63685866    -0.15600
C2100       C  0.83340422  0.04795443  0.61847665     0.36700
N2101       N  0.84415795  0.03077783  0.59945033    -0.89900
H2102       H  0.78734941  0.02136341  0.59909463     0.17800
H2103       H  0.85901309  0.11149684  0.66939531     0.17800
N2104       N  0.80466875  0.10458861  0.66670239    -0.88900
H2105       H  0.82627896  0.01261470  0.58599982     0.35200
H2106       H  0.85210533  0.02136737  0.61818810     0.40300
H2107       H  0.78474559  0.09165821  0.68130653     0.39900
H2108       H  0.80042623  0.11590665  0.64654339     0.34800
C2109       C  0.63855853  0.47993369  0.71732163    -0.26900
C2110       C  0.65705208  0.01007688  0.70739885    -0.15000
C2111       C  0.66789137  0.03067925  0.73591121     0.35600
C2112       C  0.66397237  0.52119601  0.77320138    -0.26400
C2113       C  0.64735491  0.48986789  0.78041395    -0.15600
C2114       C  0.63391317  0.46911064  0.75210286     0.36700
N2115       N  0.61732365  0.43695105  0.75762139    -0.89900
H2116       H  0.62954695  0.46381871  0.69556954     0.17800
H2117       H  0.67430890  0.53718137  0.79489054     0.17800
N2118       N  0.68503647  0.06281262  0.72935931    -0.88900
H2119       H  0.59843779  0.43154059  0.77349835     0.35200
H2120       H  0.63135402  0.43076417  0.77092060     0.40300
H2121       H  0.70524435  0.06763285  0.71667690     0.39900
H2122       H  0.69128089  0.07486860  0.75328840     0.34800
C2123       C  0.59823563  0.41579444  0.52379011    -0.26900
C2124       C  0.59503297  0.42595151  0.49026277    -0.15000
C2125       C  0.60102490  0.45638055  0.48774974     0.35600
C2126       C  0.61104368  0.47553485  0.51751622    -0.26400
C2127       C  0.61611521  0.46592491  0.55029418    -0.15600
C2128       C  0.60878254  0.43535242  0.55347826     0.36700
N2129       N  0.61238703  0.42403799  0.58670566    -0.89900
H2130       H  0.59327576  0.39264783  0.52698005     0.17800
H2131       H  0.61663718  0.49888379  0.51421517     0.17800
N2132       N  0.59810192  0.46918715  0.45529670    -0.88900
H2133       H  0.62751015  0.41610087  0.58299535     0.35200
H2134       H  0.59130505  0.40560626  0.59397675     0.40300
H2135       H  0.57570876  0.45638360  0.44622229     0.39900
H2136       H  0.61319234  0.46909628  0.43656367     0.34800
C2137       C  0.76643449  0.00833349  0.46333700    -0.26900
C2138       C  0.76947291  0.48554489  0.47711735    -0.15000
C2139       C  0.75708104  0.47192568  0.51010332     0.35600
C2140       C  0.74011491  0.48148737  0.52908845    -0.26400
C2141       C  0.73277571  0.00375200  0.51100505    -0.15600
C2142       C  0.75096517  0.01994568  0.48192607     0.36700
N2143       N  0.75375868  0.04814298  0.47115048    -0.89900
H2144       H  0.78023638  0.02105564  0.44085598     0.17800
H2145       H  0.73168466  0.47188140  0.55509967     0.17800
N2146       N  0.76233931  0.44936754  0.52557665    -0.88900
H2147       H  0.74646472  0.04588582  0.44484138     0.35200
H2148       H  0.77677542  0.06487891  0.47205349     0.40300
H2149       H  0.78577919  0.45776211  0.52624134     0.39900
H2150       H  0.75189948  0.42970205  0.51009110     0.34800
C2151       C  0.91085157  0.35741354  0.00045089    -0.26900
C2152       C  0.91544684  0.33245885  0.99698740    -0.15000
C2153       C  0.91077981  0.31850642  0.96323065     0.35600
C2154       C  0.89924754  0.32797586  0.93519378    -0.26400
C2155       C  0.89282593  0.35152462  0.93949926    -0.15600
C2156       C  0.89941584  0.36688879  0.97232533     0.36700
N2157       N  0.89252518  0.39065885  0.97785036    -0.89900
H2158       H  0.91479716  0.36882153  0.02580480     0.17800
H2159       H  0.89397783  0.31600242  0.91007127     0.17800
N2160       N  0.91684303  0.29420765  0.95757577    -0.88900
H2161       H  0.89924232  0.40004997  0.00320160     0.35200
H2162       H  0.86888027  0.38076209  0.97700675     0.40300
H2163       H  0.94033955  0.30337698  0.95989797     0.39900
H2164       H  0.91112356  0.28576204  0.93172401     0.34800
C2165       C  0.75033577  0.24388494  0.95662540    -0.26900
C2166       C  0.76077102  0.27336592  0.96972777    -0.15000
C2167       C  0.75565013  0.27774130  0.00546461     0.35600
C2168       C  0.74067228  0.25238527  0.02742764    -0.26400
C2169       C  0.73175762  0.22332454  0.01444234    -0.15600
C2170       C  0.73600782  0.21879616  0.97875571     0.36700
N2171       N  0.72611252  0.18880176  0.96539991    -0.89900
H2172       H  0.75343119  0.24026900  0.92898206     0.17800
H2173       H  0.73763422  0.25546655  0.05528563     0.17800
N2174       N  0.76641561  0.30768675  0.01958288    -0.88900
H2175       H  0.73125048  0.18949467  0.93844137     0.35200
H2176       H  0.70241322  0.17623458  0.96750379     0.40300
H2177       H  0.79018922  0.31925340  0.01891771     0.39900
H2178       H  0.76027350  0.30661399  0.04623396     0.34800
C2179       C  0.66518310  0.25133850  0.82986814    -0.26900
C2180       C  0.65746535  0.22345393  0.84574979    -0.15000
C2181       C  0.68105579  0.21856624  0.85687758     0.35600
C2182       C  0.71147797  0.24283092  0.85570030    -0.26400
C2183       C  0.71845736  0.27202184  0.84487520    -0.15600
C2184       C  0.69533265  0.27583847  0.83004014     0.36700
N2185       N  0.70222726  0.30515534  0.81758208    -0.89900
H2186       H  0.64709233  0.25526887  0.82160883     0.17800
H2187       H  0.72932637  0.23980074  0.86691200     0.17800
N2188       N  0.67386488  0.18991938  0.87214717    -0.88900
H2189       H  0.68259867  0.30444990  0.80813395     0.35200
H2190       H  0.71691706  0.31057892  0.79594619     0.40300
H2191       H  0.66214455  0.18731461  0.89586131     0.39900
H2192       H  0.69377952  0.18996325  0.87888704     0.34800
C2193       C  0.73268515  0.41706230  0.83144856    -0.26900
C2194       C  0.73820038  0.44111418  0.85396995    -0.15000
C2195       C  0.76734030  0.45859369  0.86951930     0.35600
C2196       C  0.78895675  0.44950333  0.86570079    -0.26400
C2197       C  0.78156916  0.42256048  0.84777089    -0.15600
C2198       C  0.75422572  0.40773518  0.82817213     0.36700
N2199       N  0.74702143  0.38127396  0.80776056    -0.89900
H2200       H  0.71069860  0.40390609  0.81878000     0.17800
H2201       H  0.80975549  0.46106517  0.88108059     0.17800
N2202       N  0.77459475  0.48403103  0.89195989    -0.88900
H2203       H  0.74320139  0.38522759  0.78160685     0.35200
H2204       H  0.72663733  0.36345184  0.81757390     0.40300
H2205       H  0.77104573  0.49947113  0.87766300     0.39900
H2206       H  0.75977415  0.47633224  0.91357157     0.34800
C2207       C  0.87740561  0.47322381  0.01884298    -0.26900
C2208       C  0.85980619  0.46416939  0.04996281    -0.15000
C2209       C  0.83258561  0.43543224  0.04995361     0.35600
C2210       C  0.82300081  0.41758862  0.01862859    -0.26400
C2211       C  0.84012878  0.42725240  0.98716218    -0.15600
C2212       C  0.86795692  0.45545772  0.98766764     0.36700
N2213       N  0.88626393  0.46665447  0.95617440    -0.89900
H2214       H  0.89813977  0.49514115  0.01815281     0.17800
H2215       H  0.80208493  0.39581900  0.01891904     0.17800
N2216       N  0.81454400  0.42442461  0.08161365    -0.88900
H2217       H  0.90622472  0.48724853  0.96115817     0.35200
H2218       H  0.87391854  0.47125423  0.93760528     0.40300
H2219       H  0.82752256  0.42102665  0.10050303     0.39900
H2220       H  0.79516255  0.40324385  0.07711062     0.34800
C2221       C  0.87613437  0.39237270  0.52149984    -0.26900
C2222       C  0.85785301  0.38249887  0.55188456    -0.15000
C2223       C  0.83269134  0.38716741  0.55404136     0.35600
C2224       C  0.82509017  0.39906602  0.52498261    -0.26400
C2225       C  0.84159689  0.40615037  0.49310492    -0.15600
C2226       C  0.86843661  0.40414574  0.49214729     0.36700
N2227       N  0.88733665  0.41299836  0.46104701    -0.89900
H2228       H  0.89540890  0.38893630  0.51961360     0.17800
H2229       H  0.80516696  0.40141952  0.52695164     0.17800
N2230       N  0.81417710  0.37981487  0.58523596    -0.88900
H2231       H  0.90532588  0.40888087  0.46424011     0.35200
H2232       H  0.89718902  0.43647034  0.45834445     0.40300
H2233       H  0.82833354  0.39007520  0.60711636     0.39900
H2234       H  0.80200821  0.35633319  0.58879948     0.34800
C2235       C  0.76784098  0.22428527  0.50696242    -0.26900
C2236       C  0.78120355  0.25499517  0.51595199    -0.15000
C2237       C  0.76806441  0.27210116  0.50513480     0.35600
C2238       C  0.74148945  0.25805130  0.48551073    -0.26400
C2239       C  0.72770559  0.22713809  0.47644788    -0.15600
C2240       C  0.74095207  0.21006648  0.48739933     0.36700
N2241       N  0.72705135  0.17838386  0.47922156    -0.89900
H2242       H  0.77769213  0.21106623  0.51628445     0.17800
H2243       H  0.73211046  0.27177005  0.47651721     0.17800
N2244       N  0.78157520  0.30383359  0.51307397    -0.88900
H2245       H  0.72254585  0.16642400  0.50303801     0.35200
H2246       H  0.74270661  0.17507690  0.46486350     0.40300
H2247       H  0.80391855  0.31509656  0.50356792     0.39900
H2248       H  0.78206658  0.30674311  0.54052931     0.34800
C2249       C  0.76496430  0.15400790  0.65278900    -0.26900
C2250       C  0.73605849  0.14590775  0.63964387    -0.15000
C2251       C  0.72939416  0.16883934  0.63167128     0.35600
C2252       C  0.75290276  0.19941498  0.63315292    -0.26400
C2253       C  0.78288586  0.20700206  0.64102255    -0.15600
C2254       C  0.78873959  0.18435800  0.65267924     0.36700
N2255       N  0.81923097  0.19204546  0.66154761    -0.89900
H2256       H  0.76983644  0.13624833  0.65906634     0.17800
H2257       H  0.74856311  0.21700483  0.62410647     0.17800
N2258       N  0.69965084  0.16093997  0.61911838    -0.88900
H2259       H  0.81981263  0.17264306  0.66900473     0.35200
H2260       H  0.82582938  0.20624690  0.68378810     0.40300
H2261       H  0.69626462  0.15011669  0.59456765     0.39900
H2262       H  0.69848623  0.18051593  0.61456083     0.34800
C2263       C  0.85022841  0.37177262  0.75109893    -0.26900
C2264       C  0.86248400  0.36314132  0.77875337    -0.15000
C2265       C  0.88137981  0.35112182  0.77087872     0.35600
C2266       C  0.88607742  0.34595788  0.73544511    -0.26400
C2267       C  0.87140404  0.35190211  0.70793802    -0.15600
C2268       C  0.85426171  0.36593289  0.71577705     0.36700
N2269       N  0.84007285  0.37332933  0.68787853    -0.89900
H2270       H  0.83569888  0.38104570  0.75697992     0.17800
H2271       H  0.89939473  0.33532365  0.72966777     0.17800
N2272       N  0.89500638  0.34327102  0.79895632    -0.88900
H2273       H  0.84801855  0.39661836  0.68915150     0.35200
H2274       H  0.81663251  0.36177757  0.69254199     0.40300
H2275       H  0.91857577  0.35547863  0.79531794     0.39900
H2276       H  0.88769850  0.32016164  0.79671155     0.34800
C2277       C  0.90819105  0.24000197  0.65747812    -0.26900
C2278       C  0.92655304  0.26746053  0.63932277    -0.15000
C2279       C  0.95507109  0.27370482  0.62655492     0.35600
C2280       C  0.96337342  0.25135533  0.62895831    -0.26400
C2281       C  0.94293766  0.22234883  0.64230411    -0.15600
C2282       C  0.91578100  0.21706366  0.65831353     0.36700
N2283       N  0.89493843  0.18762258  0.67256789    -0.89900
H2284       H  0.88606003  0.23498815  0.66702187     0.17800
H2285       H  0.98426708  0.25545877  0.61648878     0.17800
N2286       N  0.97386765  0.30103635  0.60718898    -0.88900
H2287       H  0.87568461  0.18721617  0.68286192     0.35200
H2288       H  0.90573787  0.18394107  0.69391123     0.40300
H2289       H  0.97645658  0.29502968  0.58142715     0.39900
H2290       H  0.99530159  0.31218993  0.61915637     0.34800
C2291       C  0.95465376  0.35985984  0.49186164    -0.26900
C2292       C  0.93414393  0.32872537  0.49779600    -0.15000
C2293       C  0.93283730  0.30763101  0.47227550     0.35600
C2294       C  0.95132670  0.31810841  0.44178499    -0.26400
C2295       C  0.97266826  0.34905197  0.43665095    -0.15600
C2296       C  0.97405783  0.37007034  0.46210957     0.36700
N2297       N  0.99533334  0.40184277  0.45821414    -0.89900
H2298       H  0.95616482  0.37657092  0.51079626     0.17800
H2299       H  0.95026799  0.30157535  0.42291381     0.17800
N2300       N  0.91364941  0.27551665  0.47777790    -0.88900
H2301       H  0.00935686  0.40918502  0.48060841     0.35200
H2302       H  0.98316261  0.41328303  0.45767681     0.40300
H2303       H  0.92249028  0.26966717  0.49938091     0.39900
H2304       H  0.91471367  0.26326771  0.45611856     0.34800
Fe2305     Fe  0.82437752  0.80140873  0.61355044     1.65800
Fe2306     Fe  0.90204435  0.83871409  0.60699866     1.73200
Fe2307     Fe  0.85874655  0.76720815  0.57405519     1.54400
O2308       O  0.82145933  0.73668378  0.60425734    -0.82300
O2309       O  0.91827678  0.83924629  0.55676888    -0.80600
O2310       O  0.80842185  0.76184393  0.64205749    -0.84800
O2311       O  0.80043425  0.77657328  0.57026144    -0.79700
O2312       O  0.88617423  0.76433575  0.61035632    -0.81400
O2313       O  0.88707107  0.86723996  0.58533196    -0.84200
C2314       C  0.80646637  0.76759954  0.54174929     0.96600
C2315       C  0.80540143  0.73729177  0.62980048     1.04000
O2316       O  0.86195277  0.80251030  0.59865371    -1.13200
O2317       O  0.89206001  0.84437827  0.65884994    -0.75600
O2318       O  0.84222775  0.82630159  0.65920875    -0.79100
O2319       O  0.83089131  0.76769597  0.53622634    -0.79800
C2320       C  0.86803157  0.84023573  0.67396989     0.95500
O2321       O  0.83629892  0.83939439  0.58475776    -0.77700
O2322       O  0.91983427  0.81194388  0.62723358    -0.82900
C2323       C  0.91428838  0.81928911  0.53404912     0.98100
C2324       C  0.90965916  0.78321593  0.62727264     1.04000
O2325       O  0.89462938  0.79152132  0.53881730    -0.78600
C2326       C  0.86093864  0.86274972  0.57581232     1.02300
Fe2327     Fe  0.81054311  0.81618301  0.87747350     1.65800
Fe2328     Fe  0.84918959  0.89333646  0.88641103     1.73200
Fe2329     Fe  0.77737797  0.85071840  0.91916195     1.54400
O2330       O  0.74648608  0.81486480  0.88652858    -0.82300
O2331       O  0.84967367  0.90914208  0.93678778    -0.80600
O2332       O  0.77217421  0.80328774  0.84761045    -0.84800
O2333       O  0.78345282  0.79069156  0.91848633    -0.79700
O2334       O  0.77575591  0.88038244  0.88508767    -0.81400
O2335       O  0.87655201  0.87678594  0.90769888    -0.84200
C2336       C  0.77379774  0.79537531  0.94733207     0.96600
C2337       C  0.74740245  0.79959398  0.86013282     1.04000
O2338       O  0.81245360  0.85371349  0.89399203    -1.13200
O2339       O  0.85521365  0.88415242  0.83435461    -0.75600
O2340       O  0.83698089  0.83448974  0.83325643    -0.79100
O2341       O  0.77633484  0.82063403  0.95483989    -0.79800
C2342       C  0.85131220  0.86034031  0.81903552     0.95500
O2343       O  0.84774777  0.82597563  0.90733229    -0.77700
O2344       O  0.82334921  0.91221787  0.86640084    -0.82900
C2345       C  0.83036175  0.90514413  0.96037710     0.98100
C2346       C  0.79483232  0.90320696  0.86744911     1.04000
O2347       O  0.80244552  0.88502404  0.95674276    -0.78600
C2348       C  0.87144832  0.85035353  0.91668061     1.02300
Fe2349     Fe  0.69505028  0.50975687  0.61102804     1.65800
Fe2350     Fe  0.66371900  0.55427616  0.60628115     1.73200
Fe2351     Fe  0.73256444  0.57797071  0.57022171     1.54400
O2352       O  0.76272675  0.57846931  0.60771273    -0.82300
O2353       O  0.66816245  0.57834340  0.56019564    -0.80600
O2354       O  0.74128318  0.52967301  0.62237203    -0.84800
O2355       O  0.70242721  0.50040577  0.56094607    -0.79700
O2356       O  0.73277161  0.61302842  0.59716952    -0.81400
O2357       O  0.63588027  0.51529492  0.57673432    -0.84200
C2358       C  0.72341001  0.51777400  0.54000547     0.96600
C2359       C  0.76411391  0.55646756  0.62155023     1.04000
O2360       O  0.69761064  0.54774061  0.59643810    -1.13200
O2361       O  0.65310704  0.53073094  0.65447657    -0.75600
O2362       O  0.68746257  0.51649053  0.66224832    -0.79100
O2363       O  0.73691091  0.54644928  0.54156221    -0.79800
C2364       C  0.66631938  0.52034665  0.67362019     0.95500
O2365       O  0.64737702  0.98544015  0.59863644    -0.77700
O2366       O  0.69238743  0.59484184  0.63337346    -0.82900
C2367       C  0.68252156  0.58262663  0.53125118     0.98100
C2368       C  0.71848087  0.61602130  0.62301030     1.04000
O2369       O  0.70575454  0.57959589  0.52949313    -0.78600
C2370       C  0.63248891  0.99135284  0.57636265     1.02300
Fe2371     Fe  0.69020813  0.98433246  0.87535066     1.65800
Fe2372     Fe  0.61259502  0.94087200  0.87970534     1.73200
Fe2373     Fe  0.65752087  0.91748506  0.91849036     1.54400
O2374       O  0.69560017  0.92458042  0.88879333    -0.82300
O2375       O  0.59396583  0.92414121  0.92865265    -0.80600
O2376       O  0.70711231  0.96075948  0.84841466    -0.84800
O2377       O  0.71457257  0.98535050  0.91832210    -0.79700
O2378       O  0.63032816  0.88401292  0.88422429    -0.81400
O2379       O  0.62561627  0.98429444  0.90149424    -0.84200
C2380       C  0.70976917  0.97190047  0.94766189     0.96600
C2381       C  0.71134007  0.94059899  0.86249269     1.04000
O2382       O  0.65309487  0.94719043  0.89054285    -1.13200
O2383       O  0.62364797  0.95683844  0.82802617    -0.75600
O2384       O  0.67299086  0.99035633  0.82935092    -0.79100
O2385       O  0.68464888  0.94875387  0.95502423    -0.79800
C2386       C  0.64768398  0.97761622  0.81371430     0.95500
O2387       O  0.67643253  0.51202268  0.90605541    -0.77700
O2388       O  0.59753588  0.89619376  0.86031160    -0.82900
C2389       C  0.59897722  0.91101917  0.95382028     0.98100
C2390       C  0.60774776  0.87795084  0.86464119     1.04000
O2391       O  0.62130148  0.90650650  0.95317116    -0.78600
C2392       C  0.65081373  0.50893514  0.91396395     1.02300
Fe2393     Fe  0.99142193  0.68156765  0.61469436     1.65800
Fe2394     Fe  0.95151038  0.60406390  0.60926451     1.73200
Fe2395     Fe  0.92295101  0.64613485  0.57519571     1.54400
O2396       O  0.92913771  0.68305111  0.60634102    -0.82300
O2397       O  0.93577028  0.58703024  0.55951686    -0.80600
O2398       O  0.96709488  0.69570821  0.64471338    -0.84800
O2399       O  0.98905014  0.70590197  0.57342952    -0.79700
O2400       O  0.89160253  0.61779395  0.61022524    -0.81400
O2401       O  0.99549784  0.62004059  0.58735849    -0.84200
C2402       C  0.97423499  0.70022358  0.54487677     0.96600
C2403       C  0.94570890  0.69887866  0.63231763     1.04000
O2404       O  0.95496218  0.64356280  0.60037534    -1.13200
O2405       O  0.96773040  0.61472027  0.66094811    -0.75600
O2406       O  0.00028228  0.66417546  0.65864651    -0.79100
O2407       O  0.95196105  0.67437785  0.53798361    -0.79800
C2408       C  0.98922388  0.63894881  0.67421769     0.95500
O2409       O  0.51518263  0.66907415  0.58651230    -0.77700
O2410       O  0.90614243  0.58535674  0.62893322    -0.82900
C2411       C  0.92038971  0.59084858  0.53603890     0.98100
C2412       C  0.88674218  0.59439537  0.62713862     1.04000
O2413       O  0.91258235  0.61072718  0.53958163    -0.78600
C2414       C  0.51455215  0.64460451  0.57853040     1.02300
Fe2415     Fe  0.52162032  0.68579996  0.87846442     1.65800
Fe2416     Fe  0.56618409  0.65447162  0.88408272     1.73200
Fe2417     Fe  0.59083012  0.72446487  0.91718217     1.54400
O2418       O  0.59111768  0.75307547  0.87785697    -0.82300
O2419       O  0.59102480  0.66047997  0.93032569    -0.80600
O2420       O  0.54184969  0.73148376  0.86473718    -0.84800
O2421       O  0.51377449  0.69578971  0.92817537    -0.79700
O2422       O  0.62535192  0.72313039  0.89147621    -0.81400
O2423       O  0.52757128  0.62726137  0.91455948    -0.84200
C2424       C  0.53177453  0.71826168  0.94704826     0.96600
C2425       C  0.56867023  0.75435872  0.86498243     1.04000
O2426       O  0.55984333  0.68862104  0.89265718    -1.13200
O2427       O  0.54149042  0.64202557  0.83629713    -0.75600
O2428       O  0.52632576  0.67549311  0.82748049    -0.79100
O2429       O  0.56038509  0.73114579  0.94473880    -0.79800
C2430       C  0.52976113  0.65386935  0.81697070     0.95500
O2431       O  0.99608462  0.64060256  0.88866491    -0.77700
O2432       O  0.60636019  0.68247886  0.85573528    -0.82900
C2433       C  0.59552712  0.67573770  0.95868117     0.98100
C2434       C  0.62784568  0.70857697  0.86570295     1.04000
O2435       O  0.59256072  0.69901515  0.95931275    -0.78600
C2436       C  0.00059488  0.62664087  0.91345565     1.02300
Fe2437     Fe  0.68282950  0.68701819  0.38036561     1.65800
Fe2438     Fe  0.65354017  0.72519421  0.42177108     1.73200
Fe2439     Fe  0.60673680  0.65658581  0.38533901     1.54400
O2440       O  0.61971013  0.64612363  0.33653788    -0.82300
O2441       O  0.62471035  0.69807322  0.46259327    -0.80600
O2442       O  0.66871356  0.68064285  0.32892983    -0.84800
O2443       O  0.66082453  0.64067968  0.38879373    -0.79700
O2444       O  0.59475297  0.68563772  0.35962074    -0.81400
O2445       O  0.68980190  0.72928058  0.44927577    -0.84200
C2446       C  0.64146444  0.62678835  0.41300772     0.96600
C2447       C  0.64353500  0.65952121  0.31728734     1.04000
O2448       O  0.64774201  0.69021502  0.39503748    -1.13200
O2449       O  0.68373238  0.75545249  0.38401992    -0.75600
O2450       O  0.71035570  0.73310019  0.37057436    -0.79100
O2451       O  0.61747617  0.62857160  0.41462635    -0.79800
C2452       C  0.70748867  0.75638988  0.37152238     0.95500
O2453       O  0.69911668  0.69325211  0.43087602    -0.77700
O2454       O  0.61852162  0.72571925  0.39616580    -0.82900
C2455       C  0.59808694  0.67479641  0.46093974     0.98100
C2456       C  0.60003145  0.71151922  0.37118794     1.04000
O2457       O  0.58745554  0.66089924  0.43185775    -0.78600
C2458       C  0.70434186  0.71526337  0.45093699     1.02300
Fe2459     Fe  0.69650425  0.67529480  0.11439394     1.65800
Fe2460     Fe  0.73310348  0.64599061  0.07004983     1.73200
Fe2461     Fe  0.66551211  0.59923983  0.10798726     1.54400
O2462       O  0.65516455  0.61224552  0.15722873    -0.82300
O2463       O  0.70501539  0.61831747  0.03001070    -0.80600
O2464       O  0.69091164  0.66058195  0.16519458    -0.84800
O2465       O  0.64995446  0.65318735  0.10590640    -0.79700
O2466       O  0.69530643  0.58775214  0.13304371    -0.81400
O2467       O  0.73617360  0.68218936  0.04268046    -0.84200
C2468       C  0.63650929  0.63459441  0.08070255     0.96600
C2469       C  0.66835579  0.63626986  0.17632083     1.04000
O2470       O  0.69901929  0.64024715  0.09828405    -1.13200
O2471       O  0.76395334  0.67501083  0.10750552    -0.75600
O2472       O  0.74313555  0.70252162  0.12368465    -0.79100
O2473       O  0.63737075  0.61015365  0.07921393    -0.79800
C2474       C  0.76578857  0.69849749  0.12182074     0.95500
O2475       O  0.70149965  0.69204512  0.06491433    -0.77700
O2476       O  0.73405920  0.61047263  0.09454736    -0.82900
C2477       C  0.68242988  0.59153234  0.03131232     0.98100
C2478       C  0.72081105  0.59263957  0.12040348     1.04000
O2479       O  0.66928332  0.58002624  0.06060721    -0.78600
C2480       C  0.72126695  0.69591944  0.04218501     1.02300
Fe2481     Fe  0.81012079  0.98106711  0.38104386     1.65800
Fe2482     Fe  0.77750943  0.91240512  0.41916162     1.73200
Fe2483     Fe  0.84660602  0.94132909  0.38193088     1.54400
O2484       O  0.85625734  0.96693635  0.33488867    -0.82300
O2485       O  0.80662562  0.91542357  0.45943106    -0.80600
O2486       O  0.81930782  0.97768348  0.32939142    -0.84800
O2487       O  0.85930386  0.51102253  0.39405008    -0.79700
O2488       O  0.81963049  0.90067549  0.35372921    -0.81400
O2489       O  0.76728658  0.94047646  0.44705238    -0.84200
C2490       C  0.87442952  0.50591884  0.41688695     0.96600
C2491       C  0.84245081  0.97766281  0.31726931     1.04000
O2492       O  0.81094820  0.94454217  0.39310234    -1.13200
O2493       O  0.74624016  0.90835459  0.38109948    -0.75600
O2494       O  0.76378932  0.95720547  0.36916635    -0.79100
O2495       O  0.87244856  0.97989558  0.41279259    -0.79800
C2496       C  0.74243135  0.92952812  0.36905374     0.95500
O2497       O  0.80121723  0.98747761  0.43180514    -0.77700
O2498       O  0.78212189  0.87951169  0.39376874    -0.82900
C2499       C  0.83039809  0.91330114  0.45699728     0.98100
C2500       C  0.79567442  0.87781945  0.36641778     1.04000
O2501       O  0.84364605  0.91660018  0.42734673    -0.78600
C2502       C  0.77878865  0.96880756  0.45013545     1.02300
Fe2503     Fe  0.82990094  0.50966062  0.11302612     1.65800
Fe2504     Fe  0.86433617  0.57853437  0.07479689     1.73200
Fe2505     Fe  0.90657483  0.55106021  0.10924297     1.54400
O2506       O  0.89168728  0.52698283  0.15734940    -0.82300
O2507       O  0.89233735  0.57963376  0.03377933    -0.80600
O2508       O  0.84373043  0.51618684  0.16452106    -0.84800
O2509       O  0.84971283  0.98406893  0.10594208    -0.79700
O2510       O  0.92132056  0.59213658  0.13692711    -0.81400
O2511       O  0.82758623  0.54839509  0.04606611    -0.84200
C2512       C  0.86897722  0.98767121  0.08232372     0.96600
C2513       C  0.86820690  0.51895508  0.17657952     1.04000
O2514       O  0.86700160  0.54695353  0.09972082    -1.13200
O2515       O  0.83535216  0.57997590  0.11263035    -0.75600
O2516       O  0.80458983  0.53089613  0.12317119    -0.79100
O2517       O  0.89308976  0.51208305  0.07861415    -0.79800
C2518       C  0.81006375  0.55815855  0.12351090     0.95500
O2519       O  0.81480864  0.50160007  0.06219997    -0.77700
O2520       O  0.90032539  0.61201092  0.10190129    -0.82900
C2521       C  0.91782723  0.58072356  0.03481045     0.98100
C2522       C  0.91790871  0.61420297  0.12692271     1.04000
O2523       O  0.92736459  0.57500860  0.06317956    -0.78600
C2524       C  0.81199404  0.51989260  0.04227071     1.02300
Fe2525     Fe  0.99595391  0.80267139  0.10847245     1.65800
Fe2526     Fe  0.92630111  0.76483470  0.07093479     1.73200
Fe2527     Fe  0.95250889  0.83522788  0.10480326     1.54400
O2528       O  0.97664037  0.84559237  0.15275907    -0.82300
O2529       O  0.92405467  0.79118588  0.02989893    -0.80600
O2530       O  0.99102525  0.81134339  0.15984713    -0.84800
O2531       O  0.52165563  0.85053306  0.09622989    -0.79700
O2532       O  0.91119751  0.80813922  0.13183276    -0.81400
O2533       O  0.95643120  0.75910171  0.04142727    -0.84200
C2534       C  0.51577325  0.86523929  0.07383071     0.96600
C2535       C  0.98820027  0.83312624  0.17133101     1.04000
O2536       O  0.95768577  0.80036891  0.09554475    -1.13200
O2537       O  0.92658511  0.73498468  0.10884811    -0.75600
O2538       O  0.97616622  0.75710252  0.12010672    -0.79100
O2539       O  0.99148379  0.86196327  0.07460041    -0.79800
C2540       C  0.94962337  0.73404977  0.12045909     0.95500
O2541       O  0.00325865  0.79417998  0.05776946    -0.77700
O2542       O  0.89244986  0.76604431  0.09843641    -0.82900
C2543       C  0.92330645  0.81575088  0.03053301     0.98100
C2544       C  0.88952600  0.78193773  0.12227394     1.04000
O2545       O  0.92891966  0.83124703  0.05874427    -0.78600
C2546       C  0.98501924  0.77243988  0.03812669     1.02300
Fe2547     Fe  0.51325098  0.81726494  0.38029988     1.65800
Fe2548     Fe  0.57854591  0.84909737  0.42735326     1.73200
Fe2549     Fe  0.55850028  0.89309230  0.38319280     1.54400
O2550       O  0.53512732  0.87842303  0.33471505    -0.82300
O2551       O  0.57823373  0.87914635  0.46433363    -0.80600
O2552       O  0.52393927  0.83057855  0.32890591    -0.84800
O2553       O  0.98899159  0.84035997  0.38462018    -0.79700
O2554       O  0.59913055  0.90184822  0.35826574    -0.81400
O2555       O  0.54467182  0.81463242  0.45598197    -0.84200
C2556       C  0.99405729  0.85906653  0.40965327     0.96600
C2557       C  0.52743186  0.85491317  0.31585703     1.04000
O2558       O  0.55058215  0.85288567  0.39639740    -1.13200
O2559       O  0.58063974  0.81801079  0.39356529    -0.75600
O2560       O  0.53289225  0.79035158  0.37407960    -0.79100
O2561       O  0.51931335  0.88339562  0.41170985    -0.79800
C2562       C  0.55947252  0.79447394  0.37837175     0.95500
O2563       O  0.50026419  0.80173364  0.43040015    -0.77700
O2564       O  0.61542867  0.88304804  0.40116233    -0.82900
C2565       C  0.58381160  0.90604928  0.45928852     0.98100
C2566       C  0.61957340  0.89756187  0.37238399     1.04000
O2567       O  0.58276792  0.91512726  0.42842692    -0.78600
C2568       C  0.51586720  0.79981612  0.45514768     1.02300
C2569       C  0.52453455  0.84008494  0.21773669    -0.26900
C2570       C  0.00058570  0.84491625  0.20694684    -0.15000
C2571       C  0.98587655  0.85395728  0.23172513     0.35600
C2572       C  0.99702784  0.86082324  0.26672880    -0.26400
C2573       C  0.52107106  0.85493615  0.27778237    -0.15600
C2574       C  0.53475515  0.84512270  0.25265165     0.36700
N2575       N  0.55913291  0.84007037  0.26182760    -0.89900
H2576       H  0.53508005  0.83200302  0.19908460     0.17800
H2577       H  0.98479835  0.86584509  0.28659529     0.17800
N2578       N  0.95871691  0.85415461  0.22206023    -0.88900
H2579       H  0.55130866  0.82237771  0.28012962     0.35200
H2580       H  0.57653730  0.85985011  0.27351187     0.40300
H2581       H  0.96491166  0.87171210  0.20384527     0.39900
H2582       H  0.94978873  0.85955404  0.24402051     0.34800
C2583       C  0.96069105  0.66594126  0.12494723    -0.26900
C2584       C  0.93439566  0.64477179  0.14286824    -0.15000
C2585       C  0.91690686  0.65519687  0.16058756     0.35600
C2586       C  0.92249829  0.68484858  0.15421612    -0.26400
C2587       C  0.94650361  0.70477389  0.13216910    -0.15600
C2588       C  0.96690674  0.69575305  0.11944793     0.36700
N2589       N  0.99254948  0.71590839  0.09817106    -0.89900
H2590       H  0.97426594  0.65829618  0.11106782     0.17800
H2591       H  0.90760275  0.69205355  0.16551965     0.17800
N2592       N  0.89254266  0.63494977  0.18354243    -0.88900
H2593       H  0.99055622  0.70551928  0.07361311     0.35200
H2594       H  0.01214572  0.71867531  0.11052516     0.40300
H2595       H  0.87655463  0.61668280  0.16841249     0.39900
H2596       H  0.88153077  0.64577856  0.19418270     0.34800
C2597       C  0.65753323  0.88613518  0.34917333    -0.26900
C2598       C  0.64985022  0.90852390  0.35623898    -0.15000
C2599       C  0.67355343  0.93898146  0.36011094     0.35600
C2600       C  0.70393361  0.94562230  0.36037693    -0.26400
C2601       C  0.71136603  0.92252919  0.35794724    -0.15600
C2602       C  0.68781740  0.89269179  0.35049779     0.36700
N2603       N  0.69421647  0.86859094  0.34620458    -0.89900
H2604       H  0.63958350  0.86264218  0.34640645     0.17800
H2605       H  0.72160724  0.96879286  0.36580154     0.17800
N2606       N  0.66770856  0.96325169  0.36718262    -0.88900
H2607       H  0.68609621  0.85860249  0.32137155     0.35200
H2608       H  0.68214794  0.85219181  0.36555162     0.40300
H2609       H  0.64447907  0.95564892  0.36628159     0.39900
H2610       H  0.67761679  0.97903220  0.34669444     0.34800
C2611       C  0.87675569  0.99648670  0.22409867    -0.26900
C2612       C  0.86849884  0.51219169  0.21442978    -0.15000
C2613       C  0.85915577  0.52623675  0.23951826     0.35600
C2614       C  0.85244489  0.51492146  0.27408722    -0.26400
C2615       C  0.85374857  0.99209443  0.28210058    -0.15600
C2616       C  0.86928075  0.98332108  0.25816106     0.36700
N2617       N  0.87600507  0.96012093  0.26770074    -0.89900
H2618       H  0.88714482  0.98864709  0.20493641     0.17800
H2619       H  0.84453138  0.52540192  0.29304011     0.17800
N2620       N  0.85567845  0.55144803  0.22933056    -0.88900
H2621       H  0.88755770  0.95645985  0.24711161     0.35200
H2622       H  0.85529547  0.93986568  0.27075426     0.40300
H2623       H  0.87713472  0.56930139  0.22220474     0.39900
H2624       H  0.84840679  0.55913542  0.25086976     0.34800
C2625       C  0.80632258  0.75312717  0.12309357    -0.26900
C2626       C  0.79608991  0.72312448  0.13392666    -0.15000
C2627       C  0.81671310  0.71654144  0.15069732     0.35600
C2628       C  0.84759529  0.73895570  0.15294251    -0.26400
C2629       C  0.85862197  0.76768272  0.13748844    -0.15600
C2630       C  0.83756328  0.77533625  0.12394177     0.36700
N2631       N  0.84821272  0.80459255  0.10808395    -0.89900
H2632       H  0.79048388  0.75838063  0.11037931     0.17800
H2633       H  0.86357796  0.73266429  0.16296002     0.17800
N2634       N  0.80666576  0.68662030  0.16373791    -0.88900
H2635       H  0.82985742  0.80669929  0.09954149     0.35200
H2636       H  0.86058769  0.80591123  0.08534757     0.40300
H2637       H  0.81192826  0.68833274  0.19073664     0.39900
H2638       H  0.81900003  0.67819073  0.15070258     0.34800
C2639       C  0.76703080  0.59900669  0.14837658    -0.26900
C2640       C  0.73783857  0.57866710  0.13528079    -0.15000
C2641       C  0.73119738  0.54920201  0.12517361     0.35600
C2642       C  0.75472666  0.54225797  0.12469242    -0.26400
C2643       C  0.78499824  0.56413274  0.13347445    -0.15600
C2644       C  0.79053380  0.59233368  0.14729277     0.36700
N2645       N  0.81979432  0.61497449  0.16000280    -0.89900
H2646       H  0.77245832  0.62162048  0.15633213     0.17800
H2647       H  0.74964801  0.52028199  0.11460568     0.17800
N2648       N  0.70162535  0.52665346  0.11259507    -0.88900
H2649       H  0.83529665  0.62285472  0.13904027     0.35200
H2650       H  0.82664658  0.60503178  0.17927627     0.40300
H2651       H  0.68620697  0.53434574  0.11455222     0.39900
H2652       H  0.69353024  0.50797674  0.12954966     0.34800
C2653       C  0.78674004  0.82619569  0.36850883    -0.26900
C2654       C  0.78115353  0.84705368  0.35096892    -0.15000
C2655       C  0.75280891  0.83604910  0.33378369     0.35600
C2656       C  0.72931429  0.80594332  0.33902622    -0.26400
C2657       C  0.73386878  0.78598281  0.36008567    -0.15600
C2658       C  0.76351573  0.79574429  0.37313251     0.36700
N2659       N  0.76919584  0.77567857  0.39415600    -0.89900
H2660       H  0.80816767  0.83452656  0.38231917     0.17800
H2661       H  0.70702426  0.79854023  0.32794295     0.17800
N2662       N  0.74669661  0.85577841  0.31296564    -0.88900
H2663       H  0.79132024  0.78710024  0.40431738     0.35200
H2664       H  0.76802777  0.75885806  0.37726174     0.40300
H2665       H  0.76282211  0.86468005  0.29262123     0.39900
H2666       H  0.74949751  0.87382414  0.32879609     0.34800
C2667       C  0.65351657  0.66355476  0.21828814    -0.26900
C2668       C  0.65628609  0.63795754  0.21146243    -0.15000
C2669       C  0.65058809  0.61712258  0.23898711     0.35600
C2670       C  0.64390046  0.62334391  0.27330947    -0.26400
C2671       C  0.64298305  0.64995142  0.28028701    -0.15600
C2672       C  0.64725245  0.66985769  0.25224932     0.36700
N2673       N  0.64616967  0.69708474  0.25778907    -0.89900
H2674       H  0.65752129  0.67955136  0.19720656     0.17800
H2675       H  0.64120956  0.60838622  0.29508639     0.17800
N2676       N  0.65379059  0.59111781  0.23268934    -0.88900
H2677       H  0.66316871  0.71092991  0.27581140     0.35200
H2678       H  0.62506608  0.69114153  0.26889146     0.40300
H2679       H  0.63656214  0.57679326  0.21516286     0.39900
H2680       H  0.65014341  0.57883476  0.25611162     0.34800
C2681       C  0.59371669  0.77878891  0.35040767    -0.26900
C2682       C  0.56584323  0.77040251  0.36671091    -0.15000
C2683       C  0.54590842  0.73948719  0.37513364     0.35600
C2684       C  0.55552875  0.71822554  0.36986661    -0.26400
C2685       C  0.58478992  0.72737581  0.35706732    -0.15600
C2686       C  0.60323589  0.75766529  0.34504620     0.36700
N2687       N  0.63303727  0.76836143  0.33040999    -0.89900
H2688       H  0.60893843  0.80231799  0.34332702     0.17800
H2689       H  0.54165418  0.69533469  0.37988194     0.17800
N2690       N  0.51716207  0.73026159  0.39189356    -0.88900
H2691       H  0.63332409  0.77670821  0.30504854     0.35200
H2692       H  0.63717236  0.75047107  0.32678228     0.40300
H2693       H  0.52162673  0.74064772  0.41684638     0.39900
H2694       H  0.50527627  0.70685348  0.39639291     0.34800
C2695       C  0.59762155  0.63495273  0.99331063    -0.26900
C2696       C  0.60416951  0.66525256  0.99163484    -0.15000
C2697       C  0.61933875  0.68443086  0.02099628     0.35600
C2698       C  0.62782516  0.67323386  0.05017647    -0.26400
C2699       C  0.62221039  0.64318423  0.05135785    -0.15600
C2700       C  0.60654433  0.62387628  0.02217276     0.36700
N2701       N  0.59960193  0.59298910  0.02045211    -0.92300
H2702       H  0.58577833  0.61956831  0.97152574     0.17800
H2703       H  0.64012070  0.68883792  0.07161419     0.17800
N2704       N  0.62764729  0.71574310  0.02161951    -0.88900
H2705       H  0.58729257  0.58159432  0.04308500     0.35200
H2706       H  0.61986758  0.59257177  0.01937402     0.40300
H2707       H  0.60789191  0.71711333  0.02071577     0.39900
H2708       H  0.64108801  0.72650894  0.99940888     0.34800
C2709       C  0.98161744  0.59545862  0.96911654    -0.26900
C2710       C  0.97645026  0.61059007  0.94130653    -0.15000
C2711       C  0.95016440  0.61352904  0.94328301     0.35600
C2712       C  0.93128812  0.60318475  0.97357786    -0.26400
C2713       C  0.93741401  0.58947833  0.00213482    -0.15600
C2714       C  0.96242690  0.58475587  0.99903076     0.36700
N2715       N  0.96860382  0.56905333  0.02616922    -0.89900
H2716       H  0.00123185  0.59253043  0.96822437     0.17800
H2717       H  0.91196650  0.60654347  0.97515209     0.17800
N2718       N  0.94309547  0.62794261  0.91519847    -0.88900
H2719       H  0.99063071  0.58345084  0.03563650     0.35200
H2720       H  0.96798087  0.55008147  0.01467611     0.40300
H2721       H  0.92401959  0.62961483  0.92156193     0.39900
H2722       H  0.93713530  0.61379879  0.89294768     0.34800
C2723       C  0.53581036  0.76391577  0.97359571    -0.26900
C2724       C  0.51940604  0.73214250  0.97017071    -0.15000
C2725       C  0.49075117  0.71503834  0.98599213     0.35600
C2726       C  0.98070032  0.72789713  0.00855077    -0.26400
C2727       C  0.99702308  0.75962068  0.01289475    -0.15600
C2728       C  0.52449715  0.77888632  0.99355437     0.36700
N2729       N  0.54202906  0.81138061  0.99556314    -0.89900
H2730       H  0.55745075  0.77732685  0.96023131     0.17800
H2731       H  0.95943027  0.71400893  0.02245306     0.17800
N2732       N  0.47379859  0.68258736  0.98297525    -0.88900
H2733       H  0.54928314  0.81799423  0.02162993     0.35200
H2734       H  0.02829301  0.81847749  0.99132313     0.40300
H2735       H  0.45274303  0.67628118  0.97150550     0.39900
H2736       H  0.46985209  0.67341857  0.00849746     0.34800
C2737       C  0.98348090  0.61831561  0.73564509    -0.26900
C2738       C  0.00212043  0.63869104  0.70933945    -0.15000
C2739       C  0.52819511  0.64862878  0.71761406     0.35600
C2740       C  0.53895166  0.65305823  0.75269426    -0.26400
C2741       C  0.51861296  0.64197001  0.78116885    -0.15600
C2742       C  0.99373714  0.62146366  0.77073070     0.36700
N2743       N  0.97324158  0.60156376  0.79722502    -0.89900
H2744       H  0.96025077  0.60115440  0.72946620     0.17800
H2745       H  0.56313110  0.66673425  0.75792333     0.17800
N2746       N  0.54924881  0.66111192  0.68854913    -0.88900
H2747       H  0.97002313  0.61461714  0.81624546     0.35200
H2748       H  0.98342111  0.59063980  0.80959260     0.40300
H2749       H  0.54656310  0.64297085  0.67290817     0.39900
H2750       H  0.57167044  0.67224744  0.69778505     0.34800
C2751       C  0.53058300  0.62835268  0.52398118    -0.26900
C2752       C  0.53863787  0.64783681  0.55332959    -0.15000
C2753       C  0.56781425  0.67418669  0.55386253     0.35600
C2754       C  0.58720360  0.68184603  0.52429019    -0.26400
C2755       C  0.57828230  0.66374712  0.49353194    -0.15600
C2756       C  0.54999291  0.63581959  0.49421701     0.36700
N2757       N  0.54045263  0.61544591  0.46438131    -0.89900
H2758       H  0.50822291  0.60814816  0.52325449     0.17800
H2759       H  0.60893427  0.70279995  0.52504770     0.17800
N2760       N  0.57754817  0.69380883  0.58422115    -0.88900
H2761       H  0.51887966  0.59657787  0.46874840     0.35200
H2762       H  0.55539448  0.60714797  0.46229918     0.40300
H2763       H  0.58250118  0.71538156  0.57602944     0.39900
H2764       H  0.59762770  0.69552571  0.59370410     0.34800
C2765       C  0.50185829  0.75569109  0.53823408    -0.26900
C2766       C  0.98234006  0.72535890  0.52062029    -0.15000
C2767       C  0.97046241  0.72083929  0.48597715     0.35600
C2768       C  0.97915883  0.74593917  0.46438698    -0.26400
C2769       C  0.50026618  0.77663731  0.48177135    -0.15600
C2770       C  0.51127960  0.78100660  0.51664320     0.36700
N2771       N  0.53259922  0.81096405  0.52944608    -0.89900
H2772       H  0.51072500  0.75903672  0.56498022     0.17800
H2773       H  0.97146027  0.74239199  0.43707138     0.17800
N2774       N  0.95071384  0.69099490  0.47209174    -0.88900
H2775       H  0.53858451  0.81014781  0.55575207     0.35200
H2776       H  0.52158348  0.82355490  0.52942892     0.40300
H2777       H  0.96099076  0.68803785  0.44960921     0.39900
H2778       H  0.93043597  0.68969060  0.46417182     0.34800
C2779       C  0.89116860  0.55703533  0.44365224    -0.26900
C2780       C  0.89091552  0.52928133  0.44535131    -0.15000
C2781       C  0.90247081  0.52323091  0.47660478     0.35600
C2782       C  0.91255004  0.54393664  0.50494683    -0.26400
C2783       C  0.91112619  0.57076231  0.50390624    -0.15600
C2784       C  0.90096847  0.57755775  0.47236367     0.36700
N2785       N  0.90049007  0.60525655  0.46918131    -0.89900
H2786       H  0.88273894  0.56260180  0.42020862     0.17800
H2787       H  0.92061453  0.53827318  0.52864082     0.17800
N2788       N  0.90341987  0.49589793  0.48124581    -0.88900
H2789       H  0.87816696  0.59975515  0.46363385     0.35200
H2790       H  0.91411456  0.61732568  0.44761520     0.40300
H2791       H  0.91636349  0.49419766  0.46077417     0.39900
H2792       H  0.88128951  0.47736556  0.48046037     0.34800
C2793       C  0.60189482  0.80510281  0.83761896    -0.26900
C2794       C  0.57377023  0.78433865  0.85263576    -0.15000
C2795       C  0.55327893  0.79449578  0.86159097     0.35600
C2796       C  0.56311964  0.82580935  0.85982386    -0.26400
C2797       C  0.59279919  0.84696442  0.84912806    -0.15600
C2798       C  0.61140142  0.83610204  0.83558124     0.36700
N2799       N  0.64132534  0.85707015  0.82285953    -0.89900
H2800       H  0.61757380  0.79764386  0.82987448     0.17800
H2801       H  0.54882479  0.83397804  0.87057543     0.17800
N2802       N  0.52377558  0.77361519  0.87584915    -0.88900
H2803       H  0.64303932  0.85095906  0.79684602     0.35200
H2804       H  0.65694068  0.85464297  0.83838521     0.40300
H2805       H  0.51094560  0.75877123  0.85541349     0.39900
H2806       H  0.51240548  0.78502293  0.88327612     0.34800
C2807       C  0.67749781  0.56177852  0.93645608    -0.26900
C2808       C  0.65223294  0.53228813  0.93883549    -0.15000
C2809       C  0.63465190  0.52400846  0.97002053     0.35600
C2810       C  0.64410612  0.54421498  0.99910707    -0.26400
C2811       C  0.67123873  0.57271851  0.99803868    -0.15600
C2812       C  0.68731643  0.58179824  0.96533169     0.36700
N2813       N  0.71451702  0.61052785  0.96065538    -0.89900
H2814       H  0.69128920  0.56856814  0.91261708     0.17800
H2815       H  0.63074938  0.53684242  0.02322235     0.17800
N2816       N  0.61010711  0.99281919  0.97194541    -0.88900
H2817       H  0.73102914  0.61231288  0.97847775     0.35200
H2818       H  0.70953714  0.62768592  0.96541180     0.40300
H2819       H  0.59101540  0.99472003  0.97737220     0.39900
H2820       H  0.61410046  0.98289633  0.99393325     0.34800
C2821       C  0.75793462  0.51634229  0.97284032    -0.26900
C2822       C  0.73547395  0.98269612  0.97203691    -0.15000
C2823       C  0.73556478  0.96484571  0.00042069     0.35600
C2824       C  0.76189699  0.97518970  0.02051582    -0.26400
C2825       C  0.78752421  0.50779683  0.01619178    -0.15600
C2826       C  0.78491996  0.52714219  0.99155985     0.36700
N2827       N  0.80950221  0.55764827  0.98569045    -0.89900
H2828       H  0.75578677  0.53126132  0.95419053     0.17800
H2829       H  0.76131670  0.96219400  0.04348005     0.17800
N2830       N  0.70922149  0.93629480  0.00895234    -0.88900
H2831       H  0.80345146  0.56883315  0.96711128     0.35200
H2832       H  0.82755763  0.55619119  0.97466619     0.40300
H2833       H  0.71513401  0.91947472  0.00730438     0.39900
H2834       H  0.70310928  0.93729861  0.03518190     0.34800
C2835       C  0.52729109  0.88188020  0.01078452    -0.26900
C2836       C  0.53823872  0.88161607  0.04487031    -0.15000
C2837       C  0.56957133  0.89195475  0.04892314     0.35600
C2838       C  0.58895240  0.90140329  0.01912971    -0.26400
C2839       C  0.57781288  0.90078269  0.98489947    -0.15600
C2840       C  0.54649801  0.89087909  0.98082277     0.36700
N2841       N  0.53394193  0.88868812  0.94608075    -0.89900
H2842       H  0.50318851  0.87322101  0.00711255     0.17800
H2843       H  0.61289803  0.90929852  0.02285420     0.17800
N2844       N  0.58187990  0.89289033  0.08331564    -0.88900
H2845       H  0.51068753  0.88106822  0.94763263     0.35200
H2846       H  0.53595775  0.87210127  0.93201186     0.40300
H2847       H  0.59895524  0.91526668  0.08843644     0.39900
H2848       H  0.59193285  0.87941483  0.08263998     0.34800
C2849       C  0.67472654  0.60782655  0.43743902    -0.26900
C2850       C  0.64870408  0.61062656  0.44114587    -0.15000
C2851       C  0.63321851  0.60242126  0.47394575     0.35600
C2852       C  0.64439133  0.59288925  0.50214453    -0.26400
C2853       C  0.67123786  0.59148366  0.49914476    -0.15600
C2854       C  0.68626619  0.59862761  0.46587557     0.36700
N2855       N  0.71351839  0.59724043  0.46100513    -0.89900
H2856       H  0.68703340  0.61412145  0.41256394     0.17800
H2857       H  0.63206156  0.58719752  0.52700130     0.17800
N2858       N  0.60668889  0.60478414  0.47948052    -0.88900
H2859       H  0.73062794  0.61466452  0.47618051     0.35200
H2860       H  0.72085276  0.60181281  0.43466701     0.40300
H2861       H  0.61100238  0.61982926  0.50051689     0.39900
H2862       H  0.58883007  0.58343309  0.48691536     0.34800
C2863       C  0.80358054  0.54119490  0.62424666    -0.26900
C2864       C  0.79401375  0.56163687  0.63454359    -0.15000
C2865       C  0.81466439  0.58807478  0.65343447     0.35600
C2866       C  0.84474507  0.59496273  0.65820825    -0.26400
C2867       C  0.85562761  0.57730684  0.64225201    -0.15600
C2868       C  0.83434465  0.54897831  0.62751637     0.36700
N2869       N  0.84463767  0.52989861  0.61235201    -0.89900
H2870       H  0.78775970  0.52047471  0.61046471     0.17800
H2871       H  0.86082004  0.61672472  0.66986252     0.17800
N2872       N  0.80630821  0.60921967  0.66646632    -0.88900
H2873       H  0.82636297  0.51027233  0.60153843     0.35200
H2874       H  0.85323433  0.52283345  0.63304080     0.40300
H2875       H  0.78676745  0.59746078  0.68204862     0.39900
H2876       H  0.80153870  0.61891541  0.64493043     0.34800
C2877       C  0.64044058  0.97875434  0.71393784    -0.26900
C2878       C  0.65638965  0.51105533  0.71017173    -0.15000
C2879       C  0.66878731  0.53201260  0.73822262     0.35600
C2880       C  0.66273908  0.01938390  0.77072262    -0.26400
C2881       C  0.64716689  0.98794946  0.77735181    -0.15600
C2882       C  0.63533985  0.96748481  0.74856283     0.36700
N2883       N  0.61989484  0.93527790  0.75355553    -0.89900
H2884       H  0.63259118  0.96292104  0.69187405     0.17800
H2885       H  0.67197965  0.03513387  0.79278816     0.17800
N2886       N  0.68711646  0.56396302  0.73099917    -0.88900
H2887       H  0.60052008  0.92888235  0.76891412     0.35200
H2888       H  0.63431447  0.92984868  0.76731798     0.40300
H2889       H  0.70670584  0.56758054  0.71774180     0.39900
H2890       H  0.69440406  0.57632981  0.75466193     0.34800
C2891       C  0.59417129  0.91735882  0.52413881    -0.26900
C2892       C  0.59250766  0.92759287  0.49004430    -0.15000
C2893       C  0.59970989  0.95831422  0.48646732     0.35600
C2894       C  0.61000901  0.97785203  0.51585261    -0.26400
C2895       C  0.61390899  0.96808123  0.54913900    -0.15600
C2896       C  0.60477926  0.93717334  0.55342798     0.36700
N2897       N  0.60666164  0.92580235  0.58741771    -0.89900
H2898       H  0.58799982  0.89392340  0.52813325     0.17800
H2899       H  0.61684978  0.00148688  0.51190481     0.17800
N2900       N  0.59773055  0.97092009  0.45338637    -0.88900
H2901       H  0.62081815  0.91658307  0.58506723     0.35200
H2902       H  0.58491901  0.90828429  0.59429258     0.40300
H2903       H  0.57542024  0.95844729  0.44394045     0.39900
H2904       H  0.61276919  0.96998390  0.43526713     0.34800
C2905       C  0.76461437  0.50834255  0.46377474    -0.26900
C2906       C  0.76370278  0.98048760  0.47285818    -0.15000
C2907       C  0.74429324  0.96358384  0.50117221     0.35600
C2908       C  0.72920729  0.97548697  0.51995434    -0.26400
C2909       C  0.73546909  0.50442939  0.51582916    -0.15600
C2910       C  0.74757596  0.51784686  0.48290598     0.36700
N2911       N  0.74243019  0.54092259  0.46887463    -0.89900
H2912       H  0.77329970  0.51819167  0.43792342     0.17800
H2913       H  0.71554919  0.96300860  0.54263598     0.17800
N2914       N  0.74005801  0.93487454  0.51228521    -0.88900
H2915       H  0.73158122  0.53344110  0.44434506     0.35200
H2916       H  0.76356921  0.56040946  0.46457431     0.40300
H2917       H  0.76133025  0.93720742  0.51714220     0.39900
H2918       H  0.72888658  0.91882582  0.49227021     0.34800
C2919       C  0.91466755  0.85452656  0.00006849    -0.26900
C2920       C  0.91511454  0.82709501  0.99800945    -0.15000
C2921       C  0.90680514  0.81101347  0.96544323     0.35600
C2922       C  0.89499412  0.82064850  0.93783914    -0.26400
C2923       C  0.89217382  0.84659206  0.94126140    -0.15600
C2924       C  0.90342501  0.86433717  0.97216668     0.36700
N2925       N  0.90157741  0.89125169  0.97641567    -0.89900
H2926       H  0.92191605  0.86801950  0.02411549     0.17800
H2927       H  0.88673726  0.80707161  0.91390780     0.17800
N2928       N  0.90946581  0.78451338  0.96066519    -0.88900
H2929       H  0.92351757  0.90943005  0.98111263     0.35200
H2930       H  0.88834561  0.88859337  0.99881681     0.40300
H2931       H  0.93265324  0.79165515  0.96106497     0.39900
H2932       H  0.90148968  0.77488349  0.93565454     0.34800
C2933       C  0.74819901  0.74046276  0.95864569    -0.26900
C2934       C  0.75805013  0.76983872  0.97180198    -0.15000
C2935       C  0.75179913  0.77381999  0.00728299     0.35600
C2936       C  0.73713891  0.74841851  0.02910699    -0.26400
C2937       C  0.72954788  0.71968256  0.01638784    -0.15600
C2938       C  0.73402663  0.71528026  0.98076218     0.36700
N2939       N  0.72444307  0.68536889  0.96746449    -0.89900
H2940       H  0.75183136  0.73705058  0.93111923     0.17800
H2941       H  0.73349702  0.75132542  0.05683061     0.17800
N2942       N  0.76119937  0.80347361  0.02144493    -0.88900
H2943       H  0.72959170  0.68612216  0.94050212     0.35200
H2944       H  0.70074252  0.67264591  0.96954215     0.40300
H2945       H  0.78497082  0.81555128  0.02219642     0.39900
H2946       H  0.75387898  0.80199851  0.04766506     0.34800
C2947       C  0.66537761  0.75227889  0.83189629    -0.26900
C2948       C  0.65778021  0.72457655  0.84827118    -0.15000
C2949       C  0.68130304  0.72024078  0.86095319     0.35600
C2950       C  0.71156663  0.74449503  0.85964033    -0.26400
C2951       C  0.71843380  0.77337083  0.84790498    -0.15600
C2952       C  0.69542622  0.77698094  0.83235487     0.36700
N2953       N  0.70229989  0.80616643  0.81935898    -0.89900
H2954       H  0.64724549  0.75586505  0.82287566     0.17800
H2955       H  0.72936828  0.74184357  0.87170398     0.17800
N2956       N  0.67411139  0.69239771  0.87845436    -0.88900
H2957       H  0.68268243  0.80528723  0.80957682     0.35200
H2958       H  0.71704329  0.81132609  0.79782250     0.40300
H2959       H  0.66238027  0.69097431  0.90181444     0.39900
H2960       H  0.69401310  0.69282947  0.88621972     0.34800
C2961       C  0.73116709  0.91038152  0.83312283    -0.26900
C2962       C  0.73710555  0.93702123  0.85057318    -0.15000
C2963       C  0.76707754  0.95714367  0.86271292     0.35600
C2964       C  0.78896692  0.94815744  0.86201597    -0.26400
C2965       C  0.78146688  0.91939932  0.84927836    -0.15600
C2966       C  0.75334406  0.90184414  0.83132908     0.36700
N2967       N  0.74557835  0.87365007  0.81423051    -0.89900
H2968       H  0.70864597  0.89520746  0.82270942     0.17800
H2969       H  0.81039267  0.96198192  0.87565058     0.17800
N2970       N  0.77505234  0.98554586  0.87899601    -0.88900
H2971       H  0.76421895  0.87036054  0.81380341     0.35200
H2972       H  0.74079566  0.87540761  0.78769472     0.40300
H2973       H  0.77039547  0.99823834  0.86105198     0.39900
H2974       H  0.76131712  0.98110108  0.90124560     0.34800
C2975       C  0.87826516  0.97219723  0.02289787    -0.26900
C2976       C  0.86102333  0.96375229  0.05425617    -0.15000
C2977       C  0.83420267  0.93473430  0.05537778     0.35600
C2978       C  0.82464621  0.91594525  0.02475097    -0.26400
C2979       C  0.84128596  0.92518432  0.99284802    -0.15600
C2980       C  0.86867953  0.95374391  0.99234509     0.36700
N2981       N  0.88623693  0.96475602  0.96030558    -0.89900
H2982       H  0.89865938  0.99433579  0.02133797     0.17800
H2983       H  0.80399648  0.89397480  0.02580412     0.17800
N2984       N  0.81646834  0.92452358  0.08734189    -0.88900
H2985       H  0.90598673  0.98570436  0.96456072     0.35200
H2986       H  0.87317949  0.96864365  0.94202838     0.40300
H2987       H  0.82984928  0.92221787  0.10665629     0.39900
H2988       H  0.79737012  0.90296574  0.08370008     0.34800
C2989       C  0.87674346  0.89286149  0.51995814    -0.26900
C2990       C  0.85801726  0.88327922  0.55011593    -0.15000
C2991       C  0.83270408  0.88774707  0.55094798     0.35600
C2992       C  0.82543495  0.89910122  0.52114689    -0.26400
C2993       C  0.84226324  0.90578071  0.48954856    -0.15600
C2994       C  0.86926593  0.90407050  0.48970737     0.36700
N2995       N  0.88850883  0.91261625  0.45892837    -0.89900
H2996       H  0.89617685  0.88963043  0.51900580     0.17800
H2997       H  0.80537986  0.90127598  0.52237344     0.17800
N2998       N  0.81352978  0.88058238  0.58151804    -0.88900
H2999       H  0.90675469  0.90904852  0.46309663     0.35200
H3000       H  0.89798895  0.93596610  0.45545899     0.40300
H3001       H  0.82718991  0.89097543  0.60372482     0.39900
H3002       H  0.80122777  0.85712309  0.58520736     0.34800
C3003       C  0.76653220  0.72321752  0.51140613    -0.26900
C3004       C  0.78300653  0.75483709  0.51526255    -0.15000
C3005       C  0.77393503  0.77319713  0.49788080     0.35600
C3006       C  0.74768174  0.75946501  0.47766806    -0.26400
C3007       C  0.73049734  0.72770919  0.47438837    -0.15600
C3008       C  0.74014769  0.70939815  0.49088707     0.36700
N3009       N  0.72280277  0.67699130  0.48777522    -0.89900
H3010       H  0.77350145  0.70924309  0.52547372     0.17800
H3011       H  0.74094136  0.77378231  0.46397585     0.17800
N3012       N  0.79108617  0.80569378  0.50017055    -0.88900
H3013       H  0.71652768  0.66785138  0.51324264     0.35200
H3014       H  0.73687955  0.66965242  0.47691845     0.40300
H3015       H  0.81324093  0.81309268  0.49145380     0.39900
H3016       H  0.79204422  0.81215395  0.52666093     0.34800
C3017       C  0.76331385  0.65495122  0.65460291    -0.26900
C3018       C  0.73453722  0.64608003  0.64030575    -0.15000
C3019       C  0.72754556  0.66857536  0.63103986     0.35600
C3020       C  0.75049133  0.69942840  0.63302138    -0.26400
C3021       C  0.78041854  0.70783340  0.64251079    -0.15600
C3022       C  0.78654953  0.68559125  0.65507725     0.36700
N3023       N  0.81695121  0.69402059  0.66544972    -0.89900
H3024       H  0.76863891  0.63761106  0.66156401     0.17800
H3025       H  0.74591818  0.71662344  0.62308860     0.17800
N3026       N  0.69816901  0.65997480  0.61659561    -0.88900
H3027       H  0.81787768  0.67490707  0.67338641     0.35200
H3028       H  0.82252371  0.70812432  0.68769238     0.40300
H3029       H  0.69607452  0.64926339  0.59222237     0.39900
H3030       H  0.69664688  0.67923898  0.61121582     0.34800
C3031       C  0.85119836  0.87236135  0.75574359    -0.26900
C3032       C  0.86250453  0.86183107  0.78256314    -0.15000
C3033       C  0.87991043  0.84822068  0.77315507     0.35600
C3034       C  0.88317372  0.84313410  0.73721808    -0.26400
C3035       C  0.86945033  0.85121988  0.71060848    -0.15600
C3036       C  0.85431395  0.86693299  0.71992255     0.36700
N3037       N  0.84144306  0.87676654  0.69300530    -0.89900
H3038       H  0.83806135  0.88297503  0.76264762     0.17800
H3039       H  0.89516277  0.83135780  0.73019972     0.17800
N3040       N  0.89384289  0.83858112  0.79921824    -0.88900
H3041       H  0.85116417  0.90028912  0.69533957     0.35200
H3042       H  0.81812730  0.86674758  0.69790252     0.40300
H3043       H  0.89136566  0.84493515  0.82476745     0.39900
H3044       H  0.91724682  0.85029755  0.79428623     0.34800
C3045       C  0.90689551  0.74118633  0.66186908    -0.26900
C3046       C  0.92550178  0.76930879  0.64505827    -0.15000
C3047       C  0.95451521  0.77627989  0.63328733     0.35600
C3048       C  0.96259109  0.75366006  0.63384386    -0.26400
C3049       C  0.94173901  0.72402105  0.64523953    -0.15600
C3050       C  0.91438731  0.71817857  0.66120498     0.36700
N3051       N  0.89330378  0.68822775  0.67394269    -0.89900
H3052       H  0.88455978  0.73574976  0.67114157     0.17800
H3053       H  0.98379074  0.75832901  0.62164055     0.17800
N3054       N  0.97430723  0.80497726  0.61699592    -0.88900
H3055       H  0.87392750  0.68746148  0.68440929     0.35200
H3056       H  0.90378457  0.68367898  0.69492172     0.40300
H3057       H  0.97847607  0.80100117  0.59094390     0.39900
H3058       H  0.99498226  0.81518571  0.63068529     0.34800
C3059       C  0.95716209  0.85965522  0.49805232    -0.26900
C3060       C  0.93339410  0.82927011  0.50096621    -0.15000
C3061       C  0.92838596  0.80952559  0.47207698     0.35600
C3062       C  0.94710323  0.82026059  0.44174683    -0.26400
C3063       C  0.97143955  0.85044153  0.43931467    -0.15600
C3064       C  0.97614039  0.87025543  0.46801850     0.36700
N3065       N  0.00054898  0.90115107  0.46731875    -0.89900
H3066       H  0.96159178  0.87545630  0.51958532     0.17800
H3067       H  0.94314051  0.80434739  0.42049739     0.17800
N3068       N  0.90456533  0.77839559  0.47334097    -0.88900
H3069       H  0.01473035  0.90466488  0.48901568     0.35200
H3070       H  0.99131351  0.91522726  0.47036277     0.40300
H3071       H  0.91435559  0.76480102  0.47028750     0.39900
H3072       H  0.89004513  0.77428102  0.45183975     0.34800
loop_ 
_geom_bond_atom_site_label_1 
_geom_bond_atom_site_label_2 
_geom_bond_distance 
_geom_bond_site_symmetry_2 
_ccdc_geom_bond_type 
Fe1          O17   2.037       .  S
Fe1           O7   2.037       .  S
Fe1          O14   2.045       .  S
Fe1           O6   2.064       .  S
Fe1          O12   1.970       .  S
Fe2           O5   2.061       .  S
Fe2           O9   2.119       .  S
Fe2          O13   2.071       .  S
Fe2          O18   2.128       .  S
Fe2          O12   1.968       .  S
Fe3          O21   2.095       .  S
Fe3           O8   2.017       .  S
Fe3          O15   2.022       .  S
Fe3           O4   2.096       .  S
Fe3          O12   1.959       .  S
O4           C11   1.276       .  A
O5           C19   1.264       .  A
O6           C11   1.270       .  A
O7           C10   1.262       .  A
O8           C20   1.266       .  A
O9           C22   1.284       .  A
C10          O15   1.259       .  A
C10         C700   1.433       .  S
C11         C717   1.481       .  S
O13          C16   1.266       .  A
O14          C16   1.262       .  A
C16         C731   1.473       .  S
O17          C22   1.266       .  A
O18          C20   1.285       .  A
C19          O21   1.270       .  A
C19         C756   1.507       .  S
C20         C742   1.480       .  S
C22         C686   1.487       .  S
Fe23         O39   2.037       .  S
Fe23         O29   2.050       .  S
Fe23         O36   2.053       .  S
Fe23         O28   2.056       .  S
Fe23         O34   1.972       .  S
Fe24         O27   2.051       .  S
Fe24         O31   2.122       .  S
Fe24         O35   2.066       .  S
Fe24         O40   2.123       .  S
Fe24         O34   1.964       .  S
Fe25         O43   2.108       .  S
Fe25         O30   2.026       .  S
Fe25         O37   2.027       .  S
Fe25         O26   2.105       .  S
Fe25         O34   1.954       .  S
O26          C33   1.278       .  A
O27          C41   1.262       .  A
O28          C33   1.269       .  A
O29          C32   1.265       .  A
O30          C42   1.267       .  A
O31          C44   1.285       .  A
C32          O37   1.262       .  A
C32         C630   1.461       .  S
C33         C647   1.480       .  S
O35          C38   1.264       .  A
O36          C38   1.263       .  A
C38         C728   1.470       .  S
O39          C44   1.268       .  A
O40          C42   1.284       .  A
C41          O43   1.273       .  A
C41         C675   1.505       .  S
C42         C661   1.478       .  S
C44         C619   1.490       .  S
Fe45         O51   2.029   1_545  S
Fe45         O58   2.026       .  S
Fe45         O50   2.083       .  S
Fe45        O829   2.072   1_545  S
Fe45         O56   1.961       .  S
Fe46         O49   2.077       .  S
Fe46         O53   2.081       .  S
Fe46         O57   2.084       .  S
Fe46         O62   2.103       .  S
Fe46         O56   1.954       .  S
Fe47         O65   2.083       .  S
Fe47         O52   2.047       .  S
Fe47         O59   2.034       .  S
Fe47         O48   2.078       .  S
Fe47         O56   1.939       .  S
O48          C55   1.274       .  A
O49          C63   1.270       .  A
O50          C55   1.271       .  A
O51          C54   1.263   1_565  A
O52          C64   1.268       .  A
O53         C834   1.274   1_545  A
C54          O59   1.264       .  A
C54         C605   1.445       .  S
C55         C560   1.488       .  S
O57          C60   1.272       .  A
O58          C60   1.264       .  A
C60         C574   1.456       .  S
O61        Fe813   2.073       .  S
O61          C66   1.267       .  A
O62          C64   1.279       .  A
C63          O65   1.271       .  A
C63         C549   1.506       .  S
C64         C714   1.477       .  S
C66         O821   1.273       .  A
C66         C591   1.500       .  S
Fe67         O73   2.027       .  S
Fe67         O80   2.025       .  S
Fe67         O72   2.061       .  S
Fe67        O851   2.036       .  S
Fe67         O78   1.963       .  S
Fe68         O71   2.047       .  S
Fe68         O75   2.118       .  S
Fe68         O79   2.075       .  S
Fe68         O84   2.132       .  S
Fe68         O78   1.963       .  S
Fe69         O87   2.085       .  S
Fe69         O74   2.024       .  S
Fe69         O81   2.025       .  S
Fe69         O70   2.103       .  S
Fe69         O78   1.952       .  S
O70          C77   1.277       .  A
O71          C85   1.259       .  A
O72          C77   1.269       .  A
O73          C76   1.261       .  A
O74          C86   1.268       .  A
O75         C856   1.285       .  A
C76          O81   1.257       .  A
C76         C518   1.455       .  S
C77         C658   1.479       .  S
O79          C82   1.265       .  A
O80          C82   1.259       .  A
C82         C577   1.485       .  S
O83        Fe835   2.031   1_545  S
O83          C88   1.268       .  A
O84          C86   1.288       .  A
C85          O87   1.268       .  A
C85         C535   1.501       .  S
C86         C493   1.484       .  S
C88         O843   1.286   1_545  A
C88         C504   1.490       .  S
Fe89         O95   2.046       .  S
Fe89        O102   2.046       .  S
Fe89         O94   2.056       .  S
Fe89       O1641   2.032       .  S
Fe89        O100   1.964       .  S
Fe90         O93   2.054       .  S
Fe90         O97   2.122       .  S
Fe90        O101   2.080       .  S
Fe90        O106   2.132       .  S
Fe90        O100   1.960       .  S
Fe91        O109   2.096       .  S
Fe91         O96   2.016       .  S
Fe91        O103   2.021       .  S
Fe91         O92   2.099       .  S
Fe91        O100   1.945       .  S
O92          C99   1.278       .  A
O93         C107   1.264       .  A
O94          C99   1.270       .  A
O95          C98   1.264       .  A
O96         C108   1.264       .  A
O97        C1646   1.284       .  A
C98         O103   1.259       .  A
C98         C462   1.460       .  S
C99         C745   1.476       .  S
O101        C104   1.268       .  A
O102        C104   1.263       .  A
C104        C434   1.477       .  S
O105      Fe1625   2.034   1_455  S
O105        C110   1.268       .  A
O106        C108   1.285       .  A
C107        O109   1.272       .  A
C107        C479   1.503       .  S
C108        C563   1.480       .  S
C110       O1633   1.285   1_455  A
C110        C448   1.488       .  S
Fe111       O117   2.038       .  S
Fe111       O124   2.039       .  S
Fe111       O116   2.088       .  S
Fe111      O1663   2.075   1_455  S
Fe111       O122   1.947       .  S
Fe112       O115   2.093       .  S
Fe112       O119   2.082       .  S
Fe112       O123   2.099       .  S
Fe112       O128   2.097       .  S
Fe112       O122   1.947       .  S
Fe113       O131   2.074       .  S
Fe113       O118   2.046       .  S
Fe113       O125   2.042       .  S
Fe113       O114   2.074       .  S
Fe113       O122   1.938       .  S
O114        C121   1.275       .  A
O115        C129   1.275       .  A
O116        C121   1.274       .  A
O117        C120   1.263       .  A
O118        C130   1.267       .  A
O119       C1668   1.275   1_455  A
C120        O125   1.265       .  A
C120        C420   1.465       .  S
C121        C490   1.494       .  S
O123        C126   1.274       .  A
O124        C126   1.265       .  A
C126        C437   1.469       .  S
O127      Fe1647   2.068       .  S
O127        C132   1.267       .  A
O128        C130   1.277       .  A
C129        O131   1.271       .  A
C129        C392   1.502       .  S
C130        C644   1.472       .  S
C132       O1655   1.274       .  A
C132        C406   1.502       .  S
Fe133       O149   2.030       .  S
Fe133       O139   2.070       .  S
Fe133       O146   2.081       .  S
Fe133       O138   2.033       .  S
Fe133       O144   1.951       .  S
Fe134       O137   2.087       .  S
Fe134       O141   2.037       .  S
Fe134       O145   2.087       .  S
Fe134       O150   2.050       .  S
Fe134       O144   1.935       .  S
Fe135       O153   2.079       .  S
Fe135       O140   2.114       .  S
Fe135       O147   2.094       .  S
Fe135       O136   2.111       .  S
Fe135       O144   1.949       .  S
O136        C143   1.277       .  A
O137        C151   1.273       .  A
O138        C143   1.266       .  A
O139        C142   1.268       .  A
O140        C152   1.284       .  A
O141        C154   1.265       .  A
C142        O147   1.274       .  A
C142        C546   1.503       .  S
C143        C367   1.483       .  S
O145        C148   1.277       .  A
O146        C148   1.272       .  A
C148        C353   1.490       .  S
O149        C154   1.262       .  A
O150        C152   1.269       .  A
C151        O153   1.269       .  A
C151        C451   1.504       .  S
C152        C381   1.485       .  S
C154        C703   1.451       .  S
Fe155       O171   2.023       .  S
Fe155       O161   2.080       .  S
Fe155       O168   2.089       .  S
Fe155       O160   2.033       .  S
Fe155       O166   1.954       .  S
Fe156       O159   2.072       .  S
Fe156       O163   2.049       .  S
Fe156       O167   2.073       .  S
Fe156       O172   2.056       .  S
Fe156       O166   1.930       .  S
Fe157       O175   2.084       .  S
Fe157       O162   2.098       .  S
Fe157       O169   2.075       .  S
Fe157       O158   2.111       .  S
Fe157       O166   1.957       .  S
O158        C165   1.275       .  A
O159        C173   1.268       .  A
O160        C165   1.263       .  A
O161        C164   1.273       .  A
O162        C174   1.282       .  A
O163        C176   1.267       .  A
C164        O169   1.270       .  A
C164        C395   1.505       .  S
C165        C364   1.472       .  S
O167        C170   1.273       .  A
O168        C170   1.273       .  A
C170        C322   1.488       .  S
O171        C176   1.261       .  A
O172        C174   1.271       .  A
C173        O175   1.271       .  A
C173        C507   1.504   1_554  S
C174        C336   1.475       .  S
C176        C633   1.443       .  S
Fe177       O193   2.033       .  S
Fe177       O190   2.070       .  S
Fe177       O182   2.031       .  S
Fe177       O951   2.069       .  S
Fe177       O188   1.948       .  S
Fe178       O181   2.083       .  S
Fe178       O185   2.043       .  S
Fe178       O189   2.080       .  S
Fe178       O194   2.045       .  S
Fe178       O188   1.943       .  S
Fe179       O197   2.082       .  S
Fe179       O184   2.105       .  S
Fe179       O191   2.087       .  S
Fe179       O180   2.107       .  S
Fe179       O188   1.950       .  S
O180        C187   1.275       .  A
O181        C195   1.274       .  A
O182        C187   1.264       .  A
O183       Fe945   2.075   1_545  S
O183        C186   1.270       .  A
O184        C196   1.281       .  A
O185        C198   1.262       .  A
C186        O959   1.272   1_545  A
C186        C476   1.505       .  S
C187        C311   1.486       .  S
O189        C192   1.276       .  A
O190        C192   1.272       .  A
O191        C954   1.274       .  A
C192        C297   1.490       .  S
O193        C198   1.263       .  A
O194        C196   1.267       .  A
C195        O197   1.271       .  A
C195        C689   1.505       .  S
C196        C350   1.475       .  S
C198        C602   1.457       .  S
Fe199       O215   2.028       .  S
Fe199       O212   2.077       .  S
Fe199       O204   2.030       .  S
Fe199       O973   2.065   1_545  S
Fe199       O210   1.950       .  S
Fe200       O203   2.084       .  S
Fe200       O207   2.042       .  S
Fe200       O211   2.086       .  S
Fe200       O216   2.041       .  S
Fe200       O210   1.931       .  S
Fe201       O219   2.077       .  S
Fe201       O206   2.102       .  S
Fe201       O213   2.094       .  S
Fe201       O202   2.111       .  S
Fe201       O210   1.955       .  S
O202        C209   1.277       .  A
O203        C217   1.272       .  A
O204        C209   1.267       .  A
O205       Fe967   2.074       .  S
O205        C208   1.268       .  A
O206        C218   1.281       .  A
O207        C220   1.268       .  A
C208        O981   1.274       .  A
C208        C672   1.507       .  S
C209        C308   1.475       .  S
O211        C214   1.273       .  A
O212        C214   1.269       .  A
O213        C976   1.273   1_545  A
C214        C339   1.490       .  S
O215        C220   1.266       .  A
O216        C218   1.270       .  A
C217        O219   1.269       .  A
C217        C409   1.505       .  S
C218        C280   1.470       .  S
C220        C521   1.457       .  S
Fe221       O237   2.034       .  S
Fe221       O234   2.067       .  S
Fe221       O226   2.029       .  S
Fe221      O1763   2.059       .  S
Fe221       O232   1.951       .  S
Fe222       O225   2.089       .  S
Fe222       O229   2.042       .  S
Fe222       O233   2.089       .  S
Fe222       O238   2.045       .  S
Fe222       O232   1.935       .  S
Fe223       O241   2.072       .  S
Fe223       O228   2.110       .  S
Fe223       O235   2.097       .  S
Fe223       O224   2.111       .  S
Fe223       O232   1.951       .  S
O224        C231   1.278       .  A
O225        C239   1.273       .  A
O226        C231   1.266       .  A
O227      Fe1757   2.062   1_455  S
O227        C230   1.264       .  A
O228        C240   1.283       .  A
O229        C242   1.267       .  A
C230       O1771   1.273   1_455  A
C230        C532   1.498       .  S
C231        C266   1.479       .  S
O233        C236   1.276       .  A
O234        C236   1.268       .  A
O235       C1766   1.273       .  A
C236        C283   1.486       .  S
O237        C242   1.264       .  A
O238        C240   1.269       .  A
C239        O241   1.269       .  A
C239        C616   1.506   1_554  S
C240        C325   1.480       .  S
C242        C423   1.455       .  S
Fe243       O259   2.020       .  S
Fe243       O256   2.095       .  S
Fe243       O248   2.032       .  S
Fe243      O1785   2.087   1_455  S
Fe243       O254   1.944       .  S
Fe244       O247   2.080       .  S
Fe244       O251   2.043       .  S
Fe244       O255   2.081       .  S
Fe244       O260   2.058       .  S
Fe244       O254   1.925       .  S
Fe245       O263   2.073       .  S
Fe245       O250   2.089       .  S
Fe245       O257   2.075       .  S
Fe245       O246   2.092       .  S
Fe245       O254   1.954       .  S
O246        C253   1.269       .  A
O247        C261   1.269       .  A
O248        C253   1.261       .  A
O249      Fe1779   2.076       .  S
O249        C252   1.272       .  A
O250        C262   1.282       .  A
O251        C264   1.267       .  A
C252       O1793   1.273       .  A
C252        C759   1.507       .  S
C253        C269   1.465       .  S
O255        C258   1.275       .  A
O256        C258   1.275       .  A
O257       C1788   1.274   1_455  A
C258        C378   1.496       .  S
O259        C264   1.260       .  A
O260        C262   1.274       .  A
C261        O263   1.265       .  A
C261        C588   1.500       .  S
C262        C294   1.472       .  S
C264        C465   1.441       .  S
C265        C270   1.389       .  A
C265       C1802   1.404   1_455  A
C265        H272   1.084       .  S
C266        C267   1.412       .  A
C266       C1801   1.406       .  A
C267        C268   1.411       .  A
C267        N274   1.437       .  S
C268       C1805   1.405       .  A
C268        H273   1.084       .  S
C269        C270   1.407       .  A
C269       C1804   1.405   1_455  A
C270        N271   1.434       .  S
N271        H275   1.044       .  S
N271        H276   1.046       .  S
N274        H277   1.045       .  S
N274        H278   1.045       .  S
C279        C280   1.400       .  A
C279        C284   1.405       .  A
C279        H286   1.084       .  S
C280        C281   1.413       .  A
C281        C282   1.410       .  A
C281        N288   1.438       .  S
C282        C283   1.402       .  A
C282        H287   1.084       .  S
C283        C284   1.415       .  A
C284        N285   1.433       .  S
N285        H289   1.045       .  S
N285        H290   1.046       .  S
N288        H291   1.044       .  S
N288        H292   1.046       .  S
C293        C294   1.406       .  A
C293        C298   1.402       .  A
C293        H300   1.085       .  S
C294        C295   1.412       .  A
C295        C296   1.404       .  A
C295        N302   1.438       .  S
C296        C297   1.411       .  A
C296        H301   1.084       .  S
C297        C298   1.409       .  A
C298        N299   1.431       .  S
N299        H303   1.046       .  S
N299        H304   1.046       .  S
N302        H305   1.043       .  S
N302        H306   1.045       .  S
C307        C312   1.414       .  A
C307       C1076   1.405       .  A
C307        H314   1.084       .  S
C308        C309   1.408       .  A
C308       C1075   1.406   1_545  A
C309        C310   1.396       .  A
C309        N316   1.440       .  S
C310       C1079   1.406   1_545  A
C310        H315   1.084       .  S
C311        C312   1.414       .  A
C311       C1078   1.407       .  A
C312        N313   1.437       .  S
N313        H317   1.046       .  S
N313        H318   1.046       .  S
N316        H319   1.046       .  S
N316        H320   1.046       .  S
C321        C322   1.409       .  A
C321        C326   1.412       .  A
C321        H328   1.084       .  S
C322        C323   1.408       .  A
C323        C324   1.405       .  A
C323        N330   1.433       .  S
C324        C325   1.407       .  A
C324        H329   1.085       .  S
C325        C326   1.407       .  A
C326        N327   1.432       .  S
N327        H331   1.045       .  S
N327        H332   1.046       .  S
N330        H333   1.046       .  S
N330        H334   1.046       .  S
C335        C336   1.405       .  A
C335        C340   1.403       .  A
C335        H342   1.084       .  S
C336        C337   1.415       .  A
C337        C338   1.405       .  A
C337        N344   1.439       .  S
C338        C339   1.408       .  A
C338        H343   1.084       .  S
C339        C340   1.413       .  A
C340        N341   1.430       .  S
N341        H345   1.044       .  S
N341        H346   1.046       .  S
N344        H347   1.044       .  S
N344        H348   1.045       .  S
C349        C350   1.401       .  A
C349        C354   1.410       .  A
C349        H356   1.084       .  S
C350        C351   1.414       .  A
C351        C352   1.405       .  A
C351        N358   1.432       .  S
C352        C353   1.403       .  A
C352        H357   1.083       .  S
C353        C354   1.418       .  A
C354        N355   1.438       .  S
N355        H359   1.046       .  S
N355        H360   1.045       .  S
N358        H361   1.045       .  S
N358        H362   1.044       .  S
C363        C364   1.405       .  A
C363        C368   1.406       .  A
C363        H370   1.084       .  S
C364        C365   1.406       .  A
C365        C366   1.401       .  A
C365        N372   1.438       .  S
C366        C367   1.407       .  A
C366        H371   1.084       .  S
C367        C368   1.414       .  A
C368        N369   1.432       .  S
N369        H373   1.046       .  S
N369        H374   1.045       .  S
N372        H375   1.046       .  S
N372        H376   1.045       .  S
C377        C378   1.402       .  A
C377        C382   1.403       .  A
C377        H384   1.084       .  S
C378        C379   1.419       .  A
C379        C380   1.417       .  A
C379        N386   1.437       .  S
C380        C381   1.404       .  A
C380        H385   1.084       .  S
C381        C382   1.420       .  A
C382        N383   1.439       .  S
N383        H387   1.045       .  S
N383        H388   1.045       .  S
N386        H389   1.045       .  S
N386        H390   1.046       .  S
C391        C392   1.408       .  A
C391        C396   1.405   1_556  A
C391        H398   1.084       .  S
C392        C393   1.419   1_556  A
C393        C394   1.405       .  A
C393        N400   1.432       .  S
C394        C395   1.410       .  A
C394        H399   1.083       .  S
C395        C396   1.423       .  A
C396        N397   1.433       .  S
N397        H401   1.045       .  S
N397        H402   1.045       .  S
N400        H403   1.045       .  S
N400        H404   1.046   1_554  S
C405        C406   1.406       .  A
C405        C410   1.408   1_556  A
C405        H412   1.084       .  S
C406        C407   1.421       .  A
C407        C408   1.412       .  A
C407        N414   1.438       .  S
C408        C409   1.407   1_556  A
C408        H413   1.083       .  S
C409        C410   1.418       .  A
C410        N411   1.432       .  S
N411        H415   1.046       .  S
N411        H416   1.046       .  S
N414        H417   1.046       .  S
N414        H418   1.046       .  S
C419        C420   1.403       .  A
C419        C424   1.388   1_556  A
C419        H426   1.084       .  S
C420        C421   1.412   1_455  A
C421       C1958   1.395       .  A
C421        N428   1.439       .  S
C422        C423   1.406       .  A
C422       C1957   1.389   1_554  A
C422        H427   1.084       .  S
C423       C1960   1.411   1_554  A
C424       C1959   1.415       .  A
C424        N425   1.433       .  S
N425        H429   1.045       .  S
N425       H1966   1.045       .  S
N428        H431   1.046       .  S
N428        H432   1.046       .  S
H430       N1961   1.046       .  S
C433        C434   1.402       .  A
C433        C438   1.401       .  A
C433        H440   1.084       .  S
C434       C1971   1.415       .  A
C435        C436   1.405       .  A
C435       C1970   1.415   1_455  A
C435        N442   1.438       .  S
C436        C437   1.398       .  A
C436        H441   1.084       .  S
C437       C1974   1.413   1_455  A
C438       C1973   1.413       .  A
C438        N439   1.433       .  S
N439        H443   1.045       .  S
N439        H444   1.046       .  S
N442        H445   1.046       .  S
N442        H446   1.046       .  S
C447        C448   1.401       .  A
C447        C452   1.414       .  A
C447        H454   1.084       .  S
C448        C449   1.411       .  A
C449        C450   1.406       .  A
C449        N456   1.433       .  S
C450        C451   1.407       .  A
C450        H455   1.083       .  S
C451        C452   1.424       .  A
C452        N453   1.438       .  S
N453        H457   1.046       .  S
N453        H458   1.045       .  S
N456        H459   1.046       .  S
N456        H460   1.046       .  S
C461        C466   1.390   1_655  A
C461       C1998   1.406       .  A
C461        H468   1.082   1_655  S
C462        C463   1.412       .  A
C462       C1997   1.407       .  A
C463        C464   1.393       .  A
C463        N470   1.439       .  S
C464       C2001   1.399       .  A
C464        H469   1.084       .  S
C465        C466   1.399       .  A
C465       C2000   1.399   1_455  A
C466        N467   1.438       .  S
N467        H471   1.046       .  S
N467        H472   1.045       .  S
N470        H473   1.046       .  S
N470        H474   1.046       .  S
C475        C476   1.413       .  A
C475        C480   1.410       .  A
C475        H482   1.083       .  S
C476        C477   1.421       .  A
C477        C478   1.404       .  A
C477        N484   1.432       .  S
C478        C479   1.410       .  A
C478        H483   1.083       .  S
C479        C480   1.412       .  A
C480        N481   1.432       .  S
N481        H485   1.045       .  S
N481        H486   1.046       .  S
N484        H487   1.044       .  S
N484        H488   1.046   1_545  S
C489        C490   1.402       .  A
C489        C494   1.403       .  A
C489        H496   1.084       .  S
C490        C491   1.422       .  A
C491        C492   1.414       .  A
C491        N498   1.437       .  S
C492        C493   1.401       .  A
C492        H497   1.084       .  S
C493        C494   1.414       .  A
C494        N495   1.433       .  S
N495        H499   1.045       .  S
N495        H500   1.046       .  S
N498        H501   1.045       .  S
N498        H502   1.046       .  S
C503        C504   1.407       .  A
C503        C508   1.402       .  A
C503        H510   1.084       .  S
C504        C505   1.408       .  A
C505        C506   1.410       .  A
C505       N1280   1.432   1_545  S
C506        C507   1.413       .  A
C506        H511   1.083   1_556  S
C507        C508   1.422       .  A
C508        N509   1.432       .  S
N509        H513   1.045       .  S
N509        H514   1.044       .  S
N512       C1273   1.433       .  S
N512        H515   1.045       .  S
N512        H516   1.046       .  S
C517        C522   1.387       .  A
C517       C1286   1.403   1_545  A
C517        H524   1.084       .  S
C518        C519   1.408   1_556  A
C518       C1285   1.403       .  A
C519        C520   1.389       .  A
C519        N526   1.433       .  S
C520       C1289   1.402       .  A
C520        H525   1.084       .  S
C521        C522   1.407   1_554  A
C521       C1288   1.403   1_545  A
C522        N523   1.434       .  S
N523        H527   1.046       .  S
N523        H528   1.046       .  S
N526        H529   1.046       .  S
N526        H530   1.046       .  S
C531        C532   1.404       .  A
C531        C536   1.410   1_554  A
C531        H538   1.083       .  S
C532        C533   1.417       .  A
C533        C534   1.407       .  A
C533        N540   1.433       .  S
C534        C535   1.406   1_554  A
C534        H539   1.084       .  S
C535        C536   1.422       .  A
C536        N537   1.438       .  S
N537        H541   1.046       .  S
N537        H542   1.046       .  S
N540        H543   1.046       .  S
N540        H544   1.045       .  S
C545        C546   1.411       .  A
C545        C550   1.414       .  A
C545        H552   1.083       .  S
C546        C547   1.413       .  A
C547        C548   1.408       .  A
C547        N554   1.432       .  S
C548        C549   1.411       .  A
C548        H553   1.083       .  S
C549        C550   1.418       .  A
C550        N551   1.438       .  S
N551        H555   1.045       .  S
N551        H556   1.046       .  S
N554        H557   1.046       .  S
N554        H558   1.046       .  S
C559        C560   1.410       .  A
C559        C564   1.413       .  A
C559        H566   1.084       .  S
C560        C561   1.412       .  A
C561        C562   1.400       .  A
C561        N568   1.432       .  S
C562        C563   1.408       .  A
C562        H567   1.085       .  S
C563        C564   1.410       .  A
C564        N565   1.437       .  S
N565        H569   1.046       .  S
N565        H570   1.046       .  S
N568        H571   1.046       .  S
N568        H572   1.044       .  S
C573        C578   1.404       .  A
C573       C1342   1.402       .  A
C573        H580   1.084       .  S
C574        C575   1.404       .  A
C574       C1341   1.402   1_545  A
C575       C1344   1.401       .  A
C575        N582   1.438       .  S
C576        C577   1.410       .  A
C576       C1343   1.393       .  A
C576        H581   1.084       .  S
C577        C578   1.419       .  A
C578        N579   1.432       .  S
N579        H583   1.045       .  S
N579        H584   1.046       .  S
N582        H585   1.046       .  S
N582        H586   1.045       .  S
C587        C588   1.406       .  A
C587        C592   1.408       .  A
C587        H594   1.084       .  S
C588        C589   1.424       .  A
C589        C590   1.404       .  A
C589        N596   1.433       .  S
C590        C591   1.405       .  A
C590        H595   1.084       .  S
C591        C592   1.417       .  A
C592        N593   1.432       .  S
N593        H597   1.046       .  S
N593        H598   1.046       .  S
N596        H599   1.045       .  S
N596        H600   1.044       .  S
C601        C606   1.389       .  A
C601       C1370   1.402   1_545  A
C601        H608   1.084       .  S
C602        C603   1.412       .  A
C602       C1369   1.404       .  A
C603        C604   1.389       .  A
C603        N610   1.433       .  S
C604       C1373   1.402       .  A
C604        H609   1.084       .  S
C605        C606   1.402       .  A
C605       C1372   1.401   1_545  A
C606        N607   1.433       .  S
N607        H611   1.046       .  S
N607        H612   1.046       .  S
N610        H613   1.046       .  S
N610        H614   1.044       .  S
C615        C616   1.413   1_554  A
C615        C620   1.410   1_554  A
C615        H622   1.083       .  S
C616        C617   1.417       .  A
C617        C618   1.412       .  A
C617        N624   1.437       .  S
C618        C619   1.408       .  A
C618        H623   1.084       .  S
C619        C620   1.410       .  A
C620        N621   1.438       .  S
N621        H625   1.046   1_556  S
N621        H626   1.045       .  S
N624        H627   1.046       .  S
N624        H628   1.046       .  S
C629        C630   1.407       .  A
C629        C634   1.393       .  A
C629        H636   1.084       .  S
C630        C631   1.411   1_556  A
C631        C632   1.394       .  A
C631        N638   1.439       .  S
C632        C633   1.397       .  A
C632        H637   1.085       .  S
C633        C634   1.400   1_554  A
C634        N635   1.438       .  S
N635        H639   1.046       .  S
N635        H640   1.046       .  S
N638        H641   1.046       .  S
N638        H642   1.046       .  S
C643        C644   1.406       .  A
C643        C648   1.406       .  A
C643        H650   1.085       .  S
C644        C645   1.409       .  A
C645        C646   1.410       .  A
C645        N652   1.438       .  S
C646        C647   1.407       .  A
C646        H651   1.084       .  S
C647        C648   1.406       .  A
C648        N649   1.435       .  S
N649        H653   1.046       .  S
N649        H654   1.045       .  S
N652        H655   1.046       .  S
N652        H656   1.046       .  S
C657        C658   1.399       .  A
C657        C662   1.409       .  A
C657        H664   1.083       .  S
C658        C659   1.415       .  A
C659        C660   1.402       .  A
C659        N666   1.431       .  S
C660        C661   1.401       .  A
C660        H665   1.084       .  S
C661        C662   1.417       .  A
C662        N663   1.438       .  S
N663        H667   1.046       .  S
N663        H668   1.043       .  S
N666        H669   1.045       .  S
N666        H670   1.044       .  S
C671        C672   1.406       .  A
C671        C676   1.411   1_554  A
C671        H678   1.083       .  S
C672        C673   1.420       .  A
C673        C674   1.417       .  A
C673        N680   1.437       .  S
C674        C675   1.406   1_554  A
C674        H679   1.083       .  S
C675        C676   1.420       .  A
C676        N677   1.439       .  S
N677        H681   1.046       .  S
N677        H682   1.046       .  S
N680        H683   1.046       .  S
N680        H684   1.046       .  S
C685        C686   1.401       .  A
C685        C690   1.411       .  A
C685        H692   1.084       .  S
C686        C687   1.418       .  A
C687        C688   1.404       .  A
C687        N694   1.434       .  S
C688        C689   1.408       .  A
C688        H693   1.084       .  S
C689        C690   1.424       .  A
C690        N691   1.438       .  S
N691        H695   1.046       .  S
N691        H696   1.046       .  S
N694        H697   1.046       .  S
N694        H698   1.043       .  S
C699        C700   1.399       .  A
C699        C704   1.393       .  A
C699        H706   1.085       .  S
C700        C701   1.403       .  A
C701        C702   1.382       .  A
C701        N708   1.435       .  S
C702        C703   1.404       .  A
C702        H707   1.084       .  S
C703        C704   1.407       .  A
C704        N705   1.433       .  S
N705        H709   1.046       .  S
N705        H710   1.046       .  S
N708        H711   1.046       .  S
N708        H712   1.044       .  S
C713        C714   1.407       .  A
C713        C718   1.409       .  A
C713        H720   1.083       .  S
C714        C715   1.406       .  A
C715        C716   1.408       .  A
C715        N722   1.432       .  S
C716        C717   1.407       .  A
C716        H721   1.084       .  S
C717        C718   1.407       .  A
C718        N719   1.437       .  S
N719        H723   1.045       .  S
N719        H724   1.046       .  S
N722        H725   1.046       .  S
N722        H726   1.045       .  S
C727        C728   1.400       .  A
C727        C732   1.401       .  A
C727        H734   1.084       .  S
C728        C729   1.418       .  A
C729        C730   1.402       .  A
C729        N736   1.439       .  S
C730        C731   1.400       .  A
C730        H735   1.084       .  S
C731        C732   1.410       .  A
C732        N733   1.433       .  S
N733        H737   1.046       .  S
N733        H738   1.045       .  S
N736        H739   1.044       .  S
N736        H740   1.046       .  S
C741        C742   1.411       .  A
C741        C746   1.405       .  A
C741        H748   1.084       .  S
C742        C743   1.410       .  A
C743        C744   1.411       .  A
C743        N750   1.438       .  S
C744        C745   1.407       .  A
C744        H749   1.084       .  S
C745        C746   1.403       .  A
C746        N747   1.437       .  S
N747        H751   1.045       .  S
N747        H752   1.046       .  S
N750        H753   1.046       .  S
N750        H754   1.046       .  S
C755        C756   1.410       .  A
C755        C760   1.409       .  A
C755        H762   1.083       .  S
C756        C757   1.415       .  A
C757        C758   1.413       .  A
C757        N764   1.432       .  S
C758        C759   1.411       .  A
C758        H763   1.083       .  S
C759        C760   1.416       .  A
C760        N761   1.433       .  S
N761        H765   1.046       .  S
N761        H766   1.045       .  S
N764        H767   1.046       .  S
N764        H768   1.045       .  S
Fe769       O785   2.041       .  S
Fe769       O775   2.035       .  S
Fe769       O782   2.045       .  S
Fe769       O774   2.065       .  S
Fe769       O780   1.972       .  S
Fe770       O773   2.061       .  S
Fe770       O777   2.114       .  S
Fe770       O781   2.073       .  S
Fe770       O786   2.119       .  S
Fe770       O780   1.972       .  S
Fe771       O789   2.094       .  S
Fe771       O776   2.024       .  S
Fe771       O783   2.022       .  S
Fe771       O772   2.092       .  S
Fe771       O780   1.960       .  S
O772        C779   1.275       .  A
O773        C787   1.264       .  A
O774        C779   1.270       .  A
O775        C778   1.262       .  A
O776        C788   1.267       .  A
O777        C790   1.282       .  A
C778        O783   1.260       .  A
C778       C1468   1.432       .  S
C779       C1485   1.482       .  S
O781        C784   1.266       .  A
O782        C784   1.262       .  A
C784       C1499   1.473       .  S
O785        C790   1.266       .  A
O786        C788   1.283       .  A
C787        O789   1.270       .  A
C787       C1524   1.510       .  S
C788       C1510   1.477       .  S
C790       C1454   1.491       .  S
Fe791       O807   2.035       .  S
Fe791       O797   2.034       .  S
Fe791       O804   2.043       .  S
Fe791       O796   2.057       .  S
Fe791       O802   1.971       .  S
Fe792       O795   2.050       .  S
Fe792       O799   2.121       .  S
Fe792       O803   2.074       .  S
Fe792       O808   2.124       .  S
Fe792       O802   1.966       .  S
Fe793       O811   2.107       .  S
Fe793       O798   2.033       .  S
Fe793       O805   2.037       .  S
Fe793       O794   2.102       .  S
Fe793       O802   1.961       .  S
O794        C801   1.278       .  A
O795        C809   1.261       .  A
O796        C801   1.269       .  A
O797        C800   1.263       .  A
O798        C810   1.268       .  A
O799        C812   1.284       .  A
C800        O805   1.263       .  A
C800       C1398   1.459       .  S
C801       C1415   1.481       .  S
O803        C806   1.266       .  A
O804        C806   1.261       .  A
C806       C1496   1.471       .  S
O807        C812   1.267       .  A
O808        C810   1.285       .  A
C809        O811   1.273       .  A
C809       C1443   1.511       .  S
C810       C1429   1.481       .  S
C812       C1387   1.490       .  S
Fe813       O819   2.028       .  S
Fe813       O826   2.026       .  S
Fe813       O818   2.082       .  S
Fe813       O824   1.950       .  S
Fe814       O817   2.076       .  S
Fe814       O821   2.088       .  S
Fe814       O825   2.101       .  S
Fe814       O830   2.104       .  S
Fe814       O824   1.952       .  S
Fe815       O833   2.090       .  S
Fe815       O820   2.051       .  S
Fe815       O827   2.051       .  S
Fe815       O816   2.087       .  S
Fe815       O824   1.933       .  S
O816        C823   1.274       .  A
O817        C831   1.270       .  A
O818        C823   1.270       .  A
O819        C822   1.265       .  A
O820        C832   1.271       .  A
C822        O827   1.269       .  A
C822       C1373   1.451       .  S
C823       C1328   1.491       .  S
O825        C828   1.274       .  A
O826        C828   1.264       .  A
C828       C1342   1.460       .  S
O829        C834   1.267       .  A
O830        C832   1.281       .  A
C831        O833   1.273       .  A
C831       C1317   1.507       .  S
C832       C1482   1.478       .  S
C834       C1359   1.492       .  S
Fe835       O841   2.036       .  S
Fe835       O848   2.038       .  S
Fe835       O840   2.064       .  S
Fe835       O846   1.965       .  S
Fe836       O839   2.040       .  S
Fe836       O843   2.127       .  S
Fe836       O847   2.057       .  S
Fe836       O852   2.137       .  S
Fe836       O846   1.958       .  S
Fe837       O855   2.094       .  S
Fe837       O842   2.021       .  S
Fe837       O849   2.028       .  S
Fe837       O838   2.101       .  S
Fe837       O846   1.947       .  S
O838        C845   1.277       .  A
O839        C853   1.259       .  A
O840        C845   1.271       .  A
O841        C844   1.263       .  A
O842        C854   1.267       .  A
C844        O849   1.260       .  A
C844       C1286   1.459       .  S
C845       C1426   1.480       .  S
O847        C850   1.263       .  A
O848        C850   1.260       .  A
C850       C1345   1.461       .  S
O851        C856   1.269       .  A
O852        C854   1.288       .  A
C853        O855   1.271       .  A
C853       C1303   1.496       .  S
C854       C1261   1.485       .  S
C856       C1272   1.486       .  S
Fe857      O2409   2.034       .  S
Fe857       O863   2.048       .  S
Fe857       O870   2.049       .  S
Fe857       O862   2.057       .  S
Fe857       O868   1.965       .  S
Fe858       O861   2.051       .  S
Fe858       O865   2.134       .  S
Fe858       O869   2.080       .  S
Fe858       O874   2.139       .  S
Fe858       O868   1.958       .  S
Fe859       O877   2.091       .  S
Fe859       O864   2.020       .  S
Fe859       O871   2.024       .  S
Fe859       O860   2.092       .  S
Fe859       O868   1.947       .  S
O860        C867   1.277       .  A
O861        C875   1.263       .  A
O862        C867   1.271       .  A
O863        C866   1.263       .  A
O864        C876   1.265       .  A
O865       C2414   1.288       .  A
C866        O871   1.258       .  A
C866       C1230   1.465       .  S
C867       C1513   1.472       .  S
O869        C872   1.267       .  A
O870        C872   1.262       .  A
C872       C1202   1.479       .  S
O873      Fe2393   2.036   1_455  S
O873        C878   1.268       .  A
O874        C876   1.287       .  A
C875        O877   1.271       .  A
C875       C1247   1.499       .  S
C876       C1331   1.483       .  S
C878       O2401   1.286   1_455  A
C878       C1216   1.490       .  S
Fe879      O2431   2.072   1_455  S
Fe879       O885   2.034       .  S
Fe879       O892   2.035       .  S
Fe879       O884   2.079       .  S
Fe879       O890   1.949       .  S
Fe880       O883   2.078       .  S
Fe880       O887   2.096       .  S
Fe880       O891   2.104       .  S
Fe880       O896   2.108       .  S
Fe880       O890   1.952       .  S
Fe881       O899   2.083       .  S
Fe881       O886   2.040       .  S
Fe881       O893   2.030       .  S
Fe881       O882   2.085       .  S
Fe881       O890   1.936       .  S
O882        C889   1.276       .  A
O883        C897   1.271       .  A
O884        C889   1.270       .  A
O885        C888   1.266       .  A
O886        C898   1.268       .  A
O887       C2436   1.275       .  A
C888        O893   1.264       .  A
C888       C1188   1.447       .  S
C889       C1258   1.494       .  S
O891        C894   1.275       .  A
O892        C894   1.265       .  A
C894       C1205   1.466       .  S
O895      Fe2415   2.075       .  S
O895        C900   1.270       .  A
O896        C898   1.282       .  A
C897        O899   1.270       .  A
C897       C1160   1.504       .  S
C898       C1412   1.475       .  S
C900       O2423   1.275       .  A
C900       C1174   1.500       .  S
Fe901       O917   2.030       .  S
Fe901       O907   2.071       .  S
Fe901       O914   2.076       .  S
Fe901       O906   2.033       .  S
Fe901       O912   1.958       .  S
Fe902       O905   2.089       .  S
Fe902       O909   2.029       .  S
Fe902       O913   2.086       .  S
Fe902       O918   2.040       .  S
Fe902       O912   1.939       .  S
Fe903       O921   2.071       .  S
Fe903       O908   2.114       .  S
Fe903       O915   2.091       .  S
Fe903       O904   2.104       .  S
Fe903       O912   1.955       .  S
O904        C911   1.275       .  A
O905        C919   1.273       .  A
O906        C911   1.265       .  A
O907        C910   1.267       .  A
O908        C920   1.284       .  A
O909        C922   1.264       .  A
C910        O915   1.274       .  A
C910       C1314   1.502       .  S
C911       C1135   1.469       .  S
O913        C916   1.275       .  A
O914        C916   1.270       .  A
C916       C1121   1.489       .  S
O917        C922   1.263       .  A
O918        C920   1.267       .  A
C919        O921   1.267       .  A
C919       C1219   1.505       .  S
C920       C1149   1.480       .  S
C922       C1471   1.447       .  S
Fe923       O939   2.018       .  S
Fe923       O929   2.080       .  S
Fe923       O936   2.082       .  S
Fe923       O928   2.023       .  S
Fe923       O934   1.946       .  S
Fe924       O927   2.073       .  S
Fe924       O931   2.051       .  S
Fe924       O935   2.078       .  S
Fe924       O940   2.056       .  S
Fe924       O934   1.926       .  S
Fe925       O943   2.089       .  S
Fe925       O930   2.099       .  S
Fe925       O937   2.078       .  S
Fe925       O926   2.114       .  S
Fe925       O934   1.953       .  S
O926        C933   1.275       .  A
O927        C941   1.269       .  A
O928        C933   1.261       .  A
O929        C932   1.273       .  A
O930        C942   1.282       .  A
O931        C944   1.267       .  A
C932        O937   1.272       .  A
C932       C1163   1.505       .  S
C933       C1132   1.477       .  S
O935        C938   1.275       .  A
O936        C938   1.272       .  A
C938       C1090   1.487       .  S
O939        C944   1.260       .  A
O940        C942   1.271       .  A
C941        O943   1.272       .  A
C941       C1275   1.505   1_554  S
C942       C1104   1.476       .  S
C944       C1401   1.442       .  S
Fe945       O961   2.027       .  S
Fe945       O958   2.086       .  S
Fe945       O950   2.027       .  S
Fe945       O956   1.944       .  S
Fe946       O949   2.077       .  S
Fe946       O953   2.042       .  S
Fe946       O957   2.079       .  S
Fe946       O962   2.052       .  S
Fe946       O956   1.931       .  S
Fe947       O965   2.087       .  S
Fe947       O952   2.100       .  S
Fe947       O959   2.084       .  S
Fe947       O948   2.112       .  S
Fe947       O956   1.950       .  S
O948        C955   1.277       .  A
O949        C963   1.271       .  A
O950        C955   1.265       .  A
O951        C954   1.269       .  A
O952        C964   1.281       .  A
O953        C966   1.265       .  A
C954       C1244   1.502       .  S
C955       C1079   1.484       .  S
O957        C960   1.274       .  A
O958        C960   1.273       .  A
C960       C1065   1.495       .  S
O961        C966   1.263       .  A
O962        C964   1.270       .  A
C963        O965   1.271       .  A
C963       C1457   1.504       .  S
C964       C1118   1.474       .  S
C966       C1370   1.447       .  S
Fe967       O983   2.029       .  S
Fe967       O980   2.083       .  S
Fe967       O972   2.036       .  S
Fe967       O978   1.949       .  S
Fe968       O971   2.086       .  S
Fe968       O975   2.027       .  S
Fe968       O979   2.086       .  S
Fe968       O984   2.040       .  S
Fe968       O978   1.934       .  S
Fe969       O987   2.080       .  S
Fe969       O974   2.110       .  S
Fe969       O981   2.094       .  S
Fe969       O970   2.110       .  S
Fe969       O978   1.949       .  S
O970        C977   1.277       .  A
O971        C985   1.273       .  A
O972        C977   1.267       .  A
O973        C976   1.265       .  A
O974        C986   1.282       .  A
O975        C988   1.263       .  A
C976       C1440   1.508       .  S
C977       C1076   1.476       .  S
O979        C982   1.275       .  A
O980        C982   1.272       .  A
C982       C1107   1.496       .  S
O983        C988   1.264       .  A
O984        C986   1.267       .  A
C985        O987   1.270       .  A
C985       C1177   1.505       .  S
C986       C1048   1.475       .  S
C988       C1289   1.452       .  S
Fe989      O1005   2.037       .  S
Fe989      O2531   2.067       .  S
Fe989      O1002   2.068       .  S
Fe989       O994   2.029       .  S
Fe989      O1000   1.953       .  S
Fe990       O993   2.089       .  S
Fe990       O997   2.031       .  S
Fe990      O1001   2.098       .  S
Fe990      O1006   2.034       .  S
Fe990      O1000   1.940       .  S
Fe991      O1009   2.073       .  S
Fe991       O996   2.110       .  S
Fe991      O1003   2.094       .  S
Fe991       O992   2.111       .  S
Fe991      O1000   1.955       .  S
O992        C999   1.277       .  A
O993       C1007   1.273       .  A
O994        C999   1.266       .  A
O995      Fe2525   2.059   1_455  S
O995        C998   1.263       .  A
O996       C1008   1.282       .  A
O997       C1010   1.264       .  A
C998       O2539   1.273   1_455  A
C998       C1300   1.498       .  S
C999       C1034   1.485       .  S
O1001      C1004   1.277       .  A
O1002      C1004   1.269       .  A
O1003      C2534   1.273       .  A
C1004      C1051   1.491       .  S
O1005      C1010   1.264       .  A
O1006      C1008   1.266       .  A
C1007      O1009   1.269       .  A
C1007      C1384   1.506   1_554  S
C1008      C1093   1.476       .  S
C1010      C1191   1.455       .  S
Fe1011     O1027   2.018       .  S
Fe1011     O2553   2.074   1_455  S
Fe1011     O1024   2.085       .  S
Fe1011     O1016   2.029       .  S
Fe1011     O1022   1.954       .  S
Fe1012     O1015   2.083       .  S
Fe1012     O1019   2.040       .  S
Fe1012     O1023   2.083       .  S
Fe1012     O1028   2.053       .  S
Fe1012     O1022   1.929       .  S
Fe1013     O1031   2.068       .  S
Fe1013     O1018   2.098       .  S
Fe1013     O1025   2.079       .  S
Fe1013     O1014   2.099       .  S
Fe1013     O1022   1.953       .  S
O1014      C1021   1.272       .  A
O1015      C1029   1.270       .  A
O1016      C1021   1.263       .  A
O1017     Fe2547   2.071       .  S
O1017      C1020   1.270       .  A
O1018      C1030   1.282       .  A
O1019      C1032   1.267       .  A
C1020      O2561   1.275       .  A
C1020      C1527   1.506       .  S
C1021      C1037   1.465       .  S
O1023      C1026   1.275       .  A
O1024      C1026   1.272       .  A
O1025      C2556   1.272   1_455  A
C1026      C1146   1.491       .  S
O1027      C1032   1.260       .  A
O1028      C1030   1.272       .  A
C1029      O1031   1.265       .  A
C1029      C1356   1.503       .  S
C1030      C1062   1.476       .  S
C1032      C1233   1.439       .  S
C1033      C2570   1.405       .  A
C1033      C1038   1.391       .  A
C1033      H1040   1.084       .  S
C1034      C2569   1.407       .  A
C1034      C1035   1.414       .  A
C1035      C1036   1.413       .  A
C1035      N1042   1.437       .  S
C1036      C2573   1.406       .  A
C1036      H1041   1.084       .  S
C1037      C2572   1.404   1_455  A
C1037      C1038   1.408       .  A
C1038      N1039   1.434       .  S
N1039      H1043   1.045       .  S
N1039      H1044   1.046       .  S
N1042      H1045   1.045       .  S
N1042      H1046   1.046       .  S
C1047      C1048   1.400       .  A
C1047      C1052   1.405       .  A
C1047      H1054   1.084       .  S
C1048      C1049   1.414       .  A
C1049      C1050   1.414       .  A
C1049      N1056   1.437       .  S
C1050      C1051   1.403       .  A
C1050      H1055   1.084       .  S
C1051      C1052   1.416       .  A
C1052      N1053   1.433       .  S
N1053      H1057   1.045       .  S
N1053      H1058   1.045       .  S
N1056      H1059   1.044       .  S
N1056      H1060   1.046       .  S
C1061      C1062   1.405       .  A
C1061      C1066   1.403       .  A
C1061      H1068   1.085       .  S
C1062      C1063   1.415       .  A
C1063      C1064   1.409       .  A
C1063      N1070   1.438       .  S
C1064      C1065   1.411       .  A
C1064      H1069   1.084       .  S
C1065      C1066   1.410       .  A
C1066      N1067   1.430       .  S
N1067      H1071   1.046       .  S
N1067      H1072   1.046       .  S
N1070      H1073   1.044       .  S
N1070      H1074   1.045       .  S
C1075      C1080   1.413       .  A
C1075      H1082   1.083       .  S
C1076      C1077   1.404       .  A
C1077      C1078   1.396       .  A
C1077      N1084   1.434       .  S
C1078      H1083   1.084       .  S
C1079      C1080   1.414       .  A
C1080      N1081   1.437       .  S
N1081      H1085   1.046       .  S
N1081      H1086   1.046       .  S
N1084      H1087   1.046       .  S
N1084      H1088   1.046       .  S
C1089      C1090   1.409       .  A
C1089      C1094   1.413       .  A
C1089      H1096   1.084       .  S
C1090      C1091   1.407       .  A
C1091      C1092   1.403       .  A
C1091      N1098   1.432       .  S
C1092      C1093   1.407       .  A
C1092      H1097   1.085       .  S
C1093      C1094   1.411       .  A
C1094      N1095   1.438       .  S
N1095      H1099   1.046       .  S
N1095      H1100   1.045       .  S
N1098      H1101   1.045       .  S
N1098      H1102   1.046       .  S
C1103      C1104   1.404       .  A
C1103      C1108   1.402       .  A
C1103      H1110   1.084       .  S
C1104      C1105   1.414       .  A
C1105      C1106   1.407       .  A
C1105      N1112   1.438       .  S
C1106      C1107   1.411       .  A
C1106      H1111   1.084       .  S
C1107      C1108   1.415       .  A
C1108      N1109   1.429       .  S
N1109      H1113   1.044       .  S
N1109      H1114   1.044       .  S
N1112      H1115   1.044       .  S
N1112      H1116   1.045       .  S
C1117      C1118   1.400       .  A
C1117      C1122   1.409       .  A
C1117      H1124   1.084       .  S
C1118      C1119   1.414       .  A
C1119      C1120   1.404       .  A
C1119      N1126   1.432       .  S
C1120      C1121   1.403       .  A
C1120      H1125   1.084       .  S
C1121      C1122   1.419       .  A
C1122      N1123   1.438       .  S
N1123      H1127   1.046       .  S
N1123      H1128   1.045       .  S
N1126      H1129   1.045       .  S
N1126      H1130   1.043       .  S
C1131      C1132   1.405       .  A
C1131      C1136   1.391       .  A
C1131      H1138   1.085       .  S
C1132      C1133   1.410       .  A
C1133      C1134   1.413       .  A
C1133      N1140   1.437       .  S
C1134      C1135   1.407       .  A
C1134      H1139   1.084       .  S
C1135      C1136   1.407       .  A
C1136      N1137   1.434       .  S
N1137      H1141   1.045       .  S
N1137      H1142   1.046       .  S
N1140      H1143   1.046       .  S
N1140      H1144   1.045       .  S
C1145      C1146   1.402       .  A
C1145      C1150   1.405       .  A
C1145      H1152   1.084       .  S
C1146      C1147   1.417       .  A
C1147      C1148   1.413       .  A
C1147      N1154   1.438       .  S
C1148      C1149   1.403       .  A
C1148      H1153   1.084       .  S
C1149      C1150   1.420       .  A
C1150      N1151   1.439       .  S
N1151      H1155   1.046       .  S
N1151      H1156   1.045       .  S
N1154      H1157   1.046       .  S
N1154      H1158   1.046       .  S
C1159      C1160   1.409       .  A
C1159      C1164   1.403   1_556  A
C1159      H1166   1.084       .  S
C1160      C1161   1.419   1_556  A
C1161      C1162   1.407       .  A
C1161      N1168   1.432       .  S
C1162      C1163   1.412       .  A
C1162      H1167   1.083       .  S
C1163      C1164   1.421       .  A
C1164      N1165   1.433       .  S
N1165      H1169   1.045       .  S
N1165      H1170   1.045       .  S
N1168      H1171   1.045       .  S
N1168      H1172   1.045       .  S
C1173      C1174   1.405       .  A
C1173      C1178   1.408   1_556  A
C1173      H1180   1.084       .  S
C1174      C1175   1.418       .  A
C1175      C1176   1.412       .  A
C1175      N1182   1.438       .  S
C1176      C1177   1.407   1_556  A
C1176      H1181   1.083       .  S
C1177      C1178   1.419       .  A
C1178      N1179   1.432       .  S
N1179      H1183   1.046       .  S
N1179      H1184   1.046       .  S
N1182      H1185   1.045       .  S
N1182      H1186   1.046       .  S
C1187      C1188   1.404       .  A
C1187      C1192   1.385       .  A
C1187      H1194   1.085       .  S
C1188      C1189   1.400   1_455  A
C1189      C2726   1.389   1_556  A
C1189      N1196   1.433       .  S
C1190      C2725   1.389   1_554  A
C1190      C1191   1.407       .  A
C1190      H1195   1.084       .  S
C1191      C2728   1.409   1_554  A
C1192      C2727   1.409   1_456  A
C1192      N1193   1.434       .  S
N1193      H1197   1.044   1_556  S
N1193      H2734   1.046       .  S
N1196      H1199   1.045       .  S
N1196      H1200   1.046   1_556  S
H1198      N2729   1.046       .  S
C1201      C1202   1.402       .  A
C1201      C1206   1.401       .  A
C1201      H1208   1.084       .  S
C1202      C2739   1.415       .  A
C1203      C2738   1.418       .  A
C1203      C1204   1.402       .  A
C1203      N1210   1.439       .  S
C1204      C1205   1.396       .  A
C1204      H1209   1.084       .  S
C1205      C2742   1.412   1_455  A
C1206      C2741   1.414       .  A
C1206      N1207   1.433       .  S
N1207      H1211   1.045       .  S
N1207      H1212   1.046       .  S
N1210      H1213   1.046       .  S
N1210      H1214   1.046       .  S
C1215      C1216   1.402       .  A
C1215      C1220   1.414       .  A
C1215      H1222   1.084       .  S
C1216      C1217   1.412       .  A
C1217      C1218   1.407       .  A
C1217      N1224   1.433       .  S
C1218      C1219   1.406       .  A
C1218      H1223   1.083       .  S
C1219      C1220   1.425       .  A
C1220      N1221   1.438       .  S
N1221      H1225   1.046       .  S
N1221      H1226   1.045       .  S
N1224      H1227   1.046       .  S
N1224      H1228   1.046       .  S
C1229      C2766   1.407   1_455  A
C1229      C1234   1.388       .  A
C1229      H1236   1.083       .  S
C1230      C2765   1.408       .  A
C1230      C1231   1.411       .  A
C1231      C1232   1.390       .  A
C1231      N1238   1.433       .  S
C1232      C2769   1.398       .  A
C1232      H1237   1.085       .  S
C1233      C2768   1.399   1_455  A
C1233      C1234   1.400       .  A
C1234      N1235   1.439       .  S
N1235      H1239   1.046       .  S
N1235      H1240   1.046       .  S
N1238      H1241   1.046       .  S
N1238      H1242   1.046       .  S
C1243      C1244   1.413       .  A
C1243      C1248   1.409       .  A
C1243      H1250   1.083       .  S
C1244      C1245   1.420       .  A
C1245      C1246   1.402       .  A
C1245      N1252   1.432       .  S
C1246      C1247   1.409       .  A
C1246      H1251   1.084       .  S
C1247      C1248   1.411       .  A
C1248      N1249   1.432       .  S
N1249      H1253   1.045       .  S
N1249      H1254   1.046       .  S
N1252      H1255   1.045       .  S
N1252      H1256   1.045       .  S
C1257      C1258   1.401       .  A
C1257      C1262   1.404       .  A
C1257      H1264   1.084       .  S
C1258      C1259   1.422       .  A
C1259      C1260   1.415       .  A
C1259      N1266   1.438       .  S
C1260      C1261   1.401       .  A
C1260      H1265   1.084       .  S
C1261      C1262   1.414       .  A
C1262      N1263   1.433       .  S
N1263      H1267   1.045       .  S
N1263      H1268   1.046       .  S
N1266      H1269   1.045       .  S
N1266      H1270   1.046       .  S
C1271      C1272   1.404       .  A
C1271      C1276   1.402       .  A
C1271      H1278   1.084       .  S
C1272      C1273   1.408       .  A
C1273      C1274   1.410       .  A
C1274      C1275   1.413       .  A
C1274      H1279   1.083   1_556  S
C1275      C1276   1.423       .  A
C1276      N1277   1.431       .  S
N1277      H1281   1.045       .  S
N1277      H1282   1.044       .  S
N1280      H1283   1.045       .  S
N1280      H1284   1.046       .  S
C1285      C1290   1.388       .  A
C1285      H1292   1.084       .  S
C1286      C1287   1.409       .  A
C1287      C1288   1.392   1_556  A
C1287      N1294   1.433   1_556  S
C1288      H1293   1.084       .  S
C1289      C1290   1.410   1_554  A
C1290      N1291   1.440       .  S
N1291      H1295   1.046       .  S
N1291      H1296   1.046       .  S
N1294      H1297   1.046       .  S
N1294      H1298   1.046       .  S
C1299      C1300   1.404       .  A
C1299      C1304   1.409   1_554  A
C1299      H1306   1.083       .  S
C1300      C1301   1.418       .  A
C1301      C1302   1.407       .  A
C1301      N1308   1.432       .  S
C1302      C1303   1.403   1_554  A
C1302      H1307   1.084       .  S
C1303      C1304   1.421       .  A
C1304      N1305   1.439       .  S
N1305      H1309   1.046       .  S
N1305      H1310   1.046       .  S
N1308      H1311   1.046       .  S
N1308      H1312   1.046       .  S
C1313      C1314   1.411       .  A
C1313      C1318   1.417       .  A
C1313      H1320   1.083       .  S
C1314      C1315   1.412       .  A
C1315      C1316   1.406       .  A
C1315      N1322   1.433       .  S
C1316      C1317   1.410       .  A
C1316      H1321   1.083       .  S
C1317      C1318   1.418       .  A
C1318      N1319   1.437       .  S
N1319      H1323   1.045       .  S
N1319      H1324   1.046       .  S
N1322      H1325   1.046       .  S
N1322      H1326   1.045       .  S
C1327      C1328   1.408       .  A
C1327      C1332   1.413       .  A
C1327      H1334   1.084       .  S
C1328      C1329   1.413       .  A
C1329      C1330   1.403       .  A
C1329      N1336   1.431       .  S
C1330      C1331   1.409       .  A
C1330      H1335   1.084       .  S
C1331      C1332   1.410       .  A
C1332      N1333   1.437       .  S
N1333      H1337   1.046       .  S
N1333      H1338   1.045       .  S
N1336      H1339   1.046       .  S
N1336      H1340   1.043       .  S
C1341      C1346   1.394       .  A
C1341      H1348   1.084       .  S
C1342      C1343   1.399       .  A
C1343      N1350   1.434       .  S
C1344      C1345   1.405   1_545  A
C1344      H1349   1.084       .  S
C1345      C1346   1.409       .  A
C1346      N1347   1.433       .  S
N1347      H1351   1.045       .  S
N1347      H1352   1.046       .  S
N1350      H1353   1.046       .  S
N1350      H1354   1.046       .  S
C1355      C1356   1.409       .  A
C1355      C1360   1.409       .  A
C1355      H1362   1.084       .  S
C1356      C1357   1.426       .  A
C1357      C1358   1.400       .  A
C1357      N1364   1.432       .  S
C1358      C1359   1.402       .  A
C1358      H1363   1.084       .  S
C1359      C1360   1.414       .  A
C1360      N1361   1.432       .  S
N1361      H1365   1.046       .  S
N1361      H1366   1.046       .  S
N1364      H1367   1.045       .  S
N1364      H1368   1.045       .  S
C1369      C1374   1.391       .  A
C1369      H1376   1.084       .  S
C1370      C1371   1.410       .  A
C1371      C1372   1.387       .  A
C1371      N1378   1.434       .  S
C1372      H1377   1.085       .  S
C1373      C1374   1.402       .  A
C1374      N1375   1.433       .  S
N1375      H1379   1.046       .  S
N1375      H1380   1.046       .  S
N1378      H1381   1.046       .  S
N1378      H1382   1.044       .  S
C1383      C1384   1.414   1_554  A
C1383      C1388   1.412   1_554  A
C1383      H1390   1.083       .  S
C1384      C1385   1.417       .  A
C1385      C1386   1.410       .  A
C1385      N1392   1.438       .  S
C1386      C1387   1.407       .  A
C1386      H1391   1.084       .  S
C1387      C1388   1.411       .  A
C1388      N1389   1.438       .  S
N1389      H1393   1.045   1_556  S
N1389      H1394   1.046       .  S
N1392      H1395   1.046       .  S
N1392      H1396   1.046       .  S
C1397      C1398   1.407       .  A
C1397      C1402   1.390       .  A
C1397      H1404   1.083       .  S
C1398      C1399   1.409   1_556  A
C1399      C1400   1.396       .  A
C1399      N1406   1.438       .  S
C1400      C1401   1.400       .  A
C1400      H1405   1.084       .  S
C1401      C1402   1.398   1_554  A
C1402      N1403   1.437       .  S
N1403      H1407   1.046       .  S
N1403      H1408   1.046       .  S
N1406      H1409   1.046       .  S
N1406      H1410   1.046       .  S
C1411      C1412   1.408       .  A
C1411      C1416   1.407       .  A
C1411      H1418   1.085       .  S
C1412      C1413   1.410       .  A
C1413      C1414   1.412       .  A
C1413      N1420   1.438       .  S
C1414      C1415   1.407       .  A
C1414      H1419   1.084       .  S
C1415      C1416   1.405       .  A
C1416      N1417   1.436       .  S
N1417      H1421   1.046       .  S
N1417      H1422   1.045       .  S
N1420      H1423   1.046       .  S
N1420      H1424   1.046       .  S
C1425      C1426   1.399       .  A
C1425      C1430   1.404       .  A
C1425      H1432   1.083       .  S
C1426      C1427   1.416       .  A
C1427      C1428   1.404       .  A
C1427      N1434   1.431       .  S
C1428      C1429   1.402       .  A
C1428      H1433   1.084       .  S
C1429      C1430   1.420       .  A
C1430      N1431   1.437       .  S
N1431      H1435   1.045       .  S
N1431      H1436   1.045       .  S
N1434      H1437   1.046       .  S
N1434      H1438   1.043       .  S
C1439      C1440   1.404       .  A
C1439      C1444   1.411   1_554  A
C1439      H1446   1.083       .  S
C1440      C1441   1.423       .  A
C1441      C1442   1.416       .  A
C1441      N1448   1.438       .  S
C1442      C1443   1.407   1_554  A
C1442      H1447   1.083       .  S
C1443      C1444   1.424       .  A
C1444      N1445   1.438       .  S
N1445      H1449   1.046       .  S
N1445      H1450   1.046       .  S
N1448      H1451   1.045       .  S
N1448      H1452   1.046       .  S
C1453      C1454   1.404       .  A
C1453      C1458   1.413       .  A
C1453      H1460   1.084       .  S
C1454      C1455   1.419       .  A
C1455      C1456   1.402       .  A
C1455      N1462   1.434       .  S
C1456      C1457   1.408       .  A
C1456      H1461   1.084       .  S
C1457      C1458   1.422       .  A
C1458      N1459   1.438       .  S
N1459      H1463   1.046       .  S
N1459      H1464   1.045       .  S
N1462      H1465   1.046       .  S
N1462      H1466   1.043       .  S
C1467      C1468   1.399       .  A
C1467      C1472   1.391       .  A
C1467      H1474   1.085       .  S
C1468      C1469   1.403       .  A
C1469      C1470   1.382       .  A
C1469      N1476   1.434       .  S
C1470      C1471   1.405       .  A
C1470      H1475   1.085       .  S
C1471      C1472   1.405       .  A
C1472      N1473   1.433       .  S
N1473      H1477   1.046       .  S
N1473      H1478   1.045       .  S
N1476      H1479   1.046       .  S
N1476      H1480   1.045       .  S
C1481      C1482   1.406       .  A
C1481      C1486   1.406       .  A
C1481      H1488   1.082       .  S
C1482      C1483   1.409       .  A
C1483      C1484   1.414       .  A
C1483      N1490   1.438       .  S
C1484      C1485   1.408       .  A
C1484      H1489   1.084       .  S
C1485      C1486   1.406       .  A
C1486      N1487   1.437       .  S
N1487      H1491   1.045       .  S
N1487      H1492   1.046       .  S
N1490      H1493   1.046       .  S
N1490      H1494   1.046       .  S
C1495      C1496   1.400       .  A
C1495      C1500   1.401       .  A
C1495      H1502   1.084       .  S
C1496      C1497   1.420       .  A
C1497      C1498   1.404       .  A
C1497      N1504   1.439       .  S
C1498      C1499   1.400       .  A
C1498      H1503   1.084       .  S
C1499      C1500   1.409       .  A
C1500      N1501   1.433       .  S
N1501      H1505   1.046       .  S
N1501      H1506   1.046       .  S
N1504      H1507   1.044       .  S
N1504      H1508   1.046       .  S
C1509      C1510   1.409       .  A
C1509      C1514   1.406       .  A
C1509      H1516   1.084       .  S
C1510      C1511   1.406       .  A
C1511      C1512   1.406       .  A
C1511      N1518   1.432       .  S
C1512      C1513   1.406       .  A
C1512      H1517   1.084       .  S
C1513      C1514   1.404       .  A
C1514      N1515   1.437       .  S
N1515      H1519   1.046       .  S
N1515      H1520   1.045       .  S
N1518      H1521   1.046       .  S
N1518      H1522   1.045       .  S
C1523      C1524   1.412       .  A
C1523      C1528   1.410       .  A
C1523      H1530   1.083       .  S
C1524      C1525   1.418       .  A
C1525      C1526   1.414       .  A
C1525      N1532   1.438       .  S
C1526      C1527   1.411       .  A
C1526      H1531   1.083       .  S
C1527      C1528   1.412       .  A
C1528      N1529   1.432       .  S
N1529      H1533   1.046       .  S
N1529      H1534   1.046       .  S
N1532      H1535   1.046       .  S
N1532      H1536   1.046       .  S
Fe1537     O1553   2.028       .  S
Fe1537     O1543   2.037       .  S
Fe1537     O1550   2.035       .  S
Fe1537     O1542   2.053       .  S
Fe1537     O1548   1.966       .  S
Fe1538     O1541   2.069       .  S
Fe1538     O1545   2.120       .  S
Fe1538     O1549   2.080       .  S
Fe1538     O1554   2.125       .  S
Fe1538     O1548   1.968       .  S
Fe1539     O1557   2.078       .  S
Fe1539     O1544   2.022       .  S
Fe1539     O1551   2.032       .  S
Fe1539     O1540   2.085       .  S
Fe1539     O1548   1.956       .  S
O1540      C1547   1.274       .  A
O1541      C1555   1.266       .  A
O1542      C1547   1.267       .  A
O1543      C1546   1.261       .  A
O1544      C1556   1.266       .  A
O1545      C1558   1.285       .  A
C1546      O1551   1.261       .  A
C1546      C2236   1.439       .  S
C1547      C2253   1.471       .  S
O1549      C1552   1.267       .  A
O1550      C1552   1.260       .  A
C1552      C2267   1.474       .  S
O1553      C1558   1.265       .  A
O1554      C1556   1.285       .  A
C1555      O1557   1.268       .  A
C1555      C2292   1.505       .  S
C1556      C2278   1.477       .  S
C1558      C2222   1.486       .  S
Fe1559     O1575   2.036       .  S
Fe1559     O1565   2.036       .  S
Fe1559     O1572   2.051       .  S
Fe1559     O1564   2.064       .  S
Fe1559     O1570   1.969       .  S
Fe1560     O1563   2.050       .  S
Fe1560     O1567   2.116       .  S
Fe1560     O1571   2.073       .  S
Fe1560     O1576   2.120       .  S
Fe1560     O1570   1.965       .  S
Fe1561     O1579   2.112       .  S
Fe1561     O1566   2.031       .  S
Fe1561     O1573   2.031       .  S
Fe1561     O1562   2.106       .  S
Fe1561     O1570   1.956       .  S
O1562      C1569   1.278       .  A
O1563      C1577   1.262       .  A
O1564      C1569   1.271       .  A
O1565      C1568   1.264       .  A
O1566      C1578   1.267       .  A
O1567      C1580   1.282       .  A
C1568      O1573   1.262       .  A
C1568      C2166   1.461       .  S
C1569      C2183   1.486       .  S
O1571      C1574   1.267       .  A
O1572      C1574   1.263       .  A
C1574      C2264   1.471       .  S
O1575      C1580   1.267       .  A
O1576      C1578   1.283       .  A
C1577      O1579   1.275       .  A
C1577      C2211   1.507       .  S
C1578      C2197   1.477       .  S
C1580      C2155   1.487       .  S
Fe1581     O2365   2.073   1_545  S
Fe1581     O1587   2.032       .  S
Fe1581     O1594   2.032       .  S
Fe1581     O1586   2.086       .  S
Fe1581     O1592   1.948       .  S
Fe1582     O1585   2.085       .  S
Fe1582     O1589   2.075       .  S
Fe1582     O1593   2.102       .  S
Fe1582     O1598   2.086       .  S
Fe1582     O1592   1.949       .  S
Fe1583     O1601   2.080       .  S
Fe1583     O1588   2.054       .  S
Fe1583     O1595   2.050       .  S
Fe1583     O1584   2.076       .  S
Fe1583     O1592   1.933       .  S
O1584      C1591   1.273       .  A
O1585      C1599   1.272       .  A
O1586      C1591   1.272       .  A
O1587      C1590   1.264       .  A
O1588      C1600   1.271       .  A
O1589      C2370   1.271   1_545  A
C1590      O1595   1.267       .  A
C1590      C2141   1.459       .  S
C1591      C2096   1.488       .  S
O1593      C1596   1.276       .  A
O1594      C1596   1.265       .  A
C1596      C2110   1.466       .  S
O1597     Fe2349   2.076       .  S
O1597      C1602   1.269       .  A
O1598      C1600   1.276       .  A
C1599      O1601   1.271       .  A
C1599      C2085   1.503       .  S
C1600      C2250   1.469       .  S
C1602      O2357   1.274       .  A
C1602      C2127   1.499       .  S
Fe1603     O2387   2.029       .  S
Fe1603     O1609   2.034       .  S
Fe1603     O1616   2.038       .  S
Fe1603     O1608   2.058       .  S
Fe1603     O1614   1.964       .  S
Fe1604     O1607   2.051       .  S
Fe1604     O1611   2.124       .  S
Fe1604     O1615   2.072       .  S
Fe1604     O1620   2.130       .  S
Fe1604     O1614   1.959       .  S
Fe1605     O1623   2.091       .  S
Fe1605     O1610   2.020       .  S
Fe1605     O1617   2.027       .  S
Fe1605     O1606   2.104       .  S
Fe1605     O1614   1.951       .  S
O1606      C1613   1.278       .  A
O1607      C1621   1.261       .  A
O1608      C1613   1.269       .  A
O1609      C1612   1.263       .  A
O1610      C1622   1.267       .  A
O1611      C2392   1.286       .  A
C1612      O1617   1.259       .  A
C1612      C2054   1.453       .  S
C1613      C2194   1.477       .  S
O1615      C1618   1.265       .  A
O1616      C1618   1.259       .  A
C1618      C2113   1.475       .  S
O1619     Fe2371   2.037   1_545  S
O1619      C1624   1.269       .  A
O1620      C1622   1.287       .  A
C1621      O1623   1.270       .  A
C1621      C2071   1.499       .  S
C1622      C2029   1.480       .  S
C1624      O2379   1.287   1_545  A
C1624      C2040   1.494       .  S
Fe1625     O1631   2.048       .  S
Fe1625     O1638   2.048       .  S
Fe1625     O1630   2.060       .  S
Fe1625     O1636   1.963       .  S
Fe1626     O1629   2.053       .  S
Fe1626     O1633   2.126       .  S
Fe1626     O1637   2.078       .  S
Fe1626     O1642   2.131       .  S
Fe1626     O1636   1.959       .  S
Fe1627     O1645   2.088       .  S
Fe1627     O1632   2.014       .  S
Fe1627     O1639   2.021       .  S
Fe1627     O1628   2.092       .  S
Fe1627     O1636   1.946       .  S
O1628      C1635   1.276       .  A
O1629      C1643   1.264       .  A
O1630      C1635   1.270       .  A
O1631      C1634   1.265       .  A
O1632      C1644   1.264       .  A
C1634      O1639   1.259       .  A
C1634      C1998   1.458       .  S
C1635      C2281   1.475       .  S
O1637      C1640   1.268       .  A
O1638      C1640   1.263       .  A
C1640      C1970   1.476       .  S
O1641      C1646   1.268       .  A
O1642      C1644   1.285       .  A
C1643      O1645   1.270       .  A
C1643      C2015   1.493       .  S
C1644      C2099   1.478       .  S
C1646      C1984   1.487       .  S
Fe1647     O1653   2.030       .  S
Fe1647     O1660   2.036       .  S
Fe1647     O1652   2.081       .  S
Fe1647     O1658   1.950       .  S
Fe1648     O1651   2.082       .  S
Fe1648     O1655   2.090       .  S
Fe1648     O1659   2.104       .  S
Fe1648     O1664   2.107       .  S
Fe1648     O1658   1.948       .  S
Fe1649     O1667   2.079       .  S
Fe1649     O1654   2.048       .  S
Fe1649     O1661   2.041       .  S
Fe1649     O1650   2.076       .  S
Fe1649     O1658   1.937       .  S
O1650      C1657   1.275       .  A
O1651      C1665   1.272       .  A
O1652      C1657   1.271       .  A
O1653      C1656   1.264       .  A
O1654      C1666   1.268       .  A
C1656      O1661   1.265       .  A
C1656      C1956   1.451       .  S
C1657      C2026   1.492       .  S
O1659      C1662   1.276       .  A
O1660      C1662   1.266       .  A
C1662      C1973   1.467       .  S
O1663      C1668   1.271       .  A
O1664      C1666   1.281       .  A
C1665      O1667   1.270       .  A
C1665      C1928   1.504       .  S
C1666      C2180   1.478       .  S
C1668      C1942   1.497       .  S
Fe1669     O1685   2.033       .  S
Fe1669     O1675   2.065       .  S
Fe1669     O1682   2.072       .  S
Fe1669     O1674   2.027       .  S
Fe1669     O1680   1.945       .  S
Fe1670     O1673   2.075       .  S
Fe1670     O1677   2.042       .  S
Fe1670     O1681   2.082       .  S
Fe1670     O1686   2.046       .  S
Fe1670     O1680   1.929       .  S
Fe1671     O1689   2.087       .  S
Fe1671     O1676   2.109       .  S
Fe1671     O1683   2.093       .  S
Fe1671     O1672   2.125       .  S
Fe1671     O1680   1.949       .  S
O1672      C1679   1.281       .  A
O1673      C1687   1.272       .  A
O1674      C1679   1.266       .  A
O1675      C1678   1.265       .  A
O1676      C1688   1.283       .  A
O1677      C1690   1.267       .  A
C1678      O1683   1.272       .  A
C1678      C2082   1.501       .  S
C1679      C1903   1.489       .  S
O1681      C1684   1.274       .  A
O1682      C1684   1.269       .  A
C1684      C1889   1.485       .  S
O1685      C1690   1.264       .  A
O1686      C1688   1.269       .  A
C1687      O1689   1.272       .  A
C1687      C1987   1.503       .  S
C1688      C1917   1.479       .  S
C1690      C2239   1.459       .  S
Fe1691     O1707   2.023       .  S
Fe1691     O1697   2.078       .  S
Fe1691     O1704   2.080       .  S
Fe1691     O1696   2.029       .  S
Fe1691     O1702   1.956       .  S
Fe1692     O1695   2.078       .  S
Fe1692     O1699   2.047       .  S
Fe1692     O1703   2.076       .  S
Fe1692     O1708   2.051       .  S
Fe1692     O1702   1.933       .  S
Fe1693     O1711   2.091       .  S
Fe1693     O1698   2.103       .  S
Fe1693     O1705   2.077       .  S
Fe1693     O1694   2.116       .  S
Fe1693     O1702   1.957       .  S
O1694      C1701   1.276       .  A
O1695      C1709   1.270       .  A
O1696      C1701   1.262       .  A
O1697      C1700   1.272       .  A
O1698      C1710   1.283       .  A
O1699      C1712   1.267       .  A
C1700      O1705   1.271       .  A
C1700      C1931   1.505       .  S
C1701      C1900   1.476       .  S
O1703      C1706   1.273       .  A
O1704      C1706   1.271       .  A
C1706      C1858   1.486       .  S
O1707      C1712   1.261       .  A
O1708      C1710   1.270       .  A
C1709      O1711   1.272       .  A
C1709      C2043   1.510   1_554  S
C1710      C1872   1.476       .  S
C1712      C2169   1.445       .  S
Fe1713     O1729   2.032       .  S
Fe1713     O2487   2.071       .  S
Fe1713     O1726   2.081       .  S
Fe1713     O1718   2.032       .  S
Fe1713     O1724   1.946       .  S
Fe1714     O1717   2.081       .  S
Fe1714     O1721   2.034       .  S
Fe1714     O1725   2.081       .  S
Fe1714     O1730   2.043       .  S
Fe1714     O1724   1.934       .  S
Fe1715     O1733   2.074       .  S
Fe1715     O1720   2.099       .  S
Fe1715     O1727   2.086       .  S
Fe1715     O1716   2.104       .  S
Fe1715     O1724   1.949       .  S
O1716      C1723   1.275       .  A
O1717      C1731   1.272       .  A
O1718      C1723   1.266       .  A
O1719     Fe2481   2.075   1_545  S
O1719      C1722   1.271       .  A
O1720      C1732   1.280       .  A
O1721      C1734   1.262       .  A
C1722      O2495   1.273   1_545  A
C1722      C2012   1.501       .  S
C1723      C1847   1.481       .  S
O1725      C1728   1.276       .  A
O1726      C1728   1.273       .  A
O1727      C2490   1.273       .  A
C1728      C1833   1.490       .  S
O1729      C1734   1.263       .  A
O1730      C1732   1.268       .  A
C1731      O1733   1.269       .  A
C1731      C2225   1.500       .  S
C1732      C1886   1.470       .  S
C1734      C2138   1.447       .  S
Fe1735     O1751   2.029   1_545  S
Fe1735     O2509   2.075   1_545  S
Fe1735     O1748   2.083       .  S
Fe1735     O1740   2.035       .  S
Fe1735     O1746   1.952       .  S
Fe1736     O1739   2.078       .  S
Fe1736     O1743   2.036       .  S
Fe1736     O1747   2.082       .  S
Fe1736     O1752   2.045       .  S
Fe1736     O1746   1.932       .  S
Fe1737     O1755   2.081       .  S
Fe1737     O1742   2.104       .  S
Fe1737     O1749   2.086       .  S
Fe1737     O1738   2.106       .  S
Fe1737     O1746   1.950       .  S
O1738      C1745   1.277       .  A
O1739      C1753   1.271       .  A
O1740      C1745   1.267       .  A
O1741     Fe2503   2.077       .  S
O1741      C1744   1.268       .  A
O1742      C1754   1.281       .  A
O1743      C1756   1.266       .  A
C1744      O2517   1.273       .  A
C1744      C2208   1.508       .  S
C1745      C1844   1.474       .  S
O1747      C1750   1.273       .  A
O1748      C1750   1.271       .  A
O1749      C2512   1.273   1_545  A
C1750      C1875   1.489       .  S
O1751      C1756   1.264   1_565  A
O1752      C1754   1.268       .  A
C1753      O1755   1.270       .  A
C1753      C1945   1.502   1_554  S
C1754      C1816   1.474       .  S
C1756      C2057   1.452       .  S
Fe1757     O1773   2.041   1_655  S
Fe1757     O1770   2.071       .  S
Fe1757     O1762   2.028       .  S
Fe1757     O1768   1.947       .  S
Fe1758     O1761   2.086       .  S
Fe1758     O1765   2.043       .  S
Fe1758     O1769   2.088       .  S
Fe1758     O1774   2.042       .  S
Fe1758     O1768   1.931       .  S
Fe1759     O1777   2.075       .  S
Fe1759     O1764   2.104       .  S
Fe1759     O1771   2.090       .  S
Fe1759     O1760   2.104       .  S
Fe1759     O1768   1.953       .  S
O1760      C1767   1.276       .  A
O1761      C1775   1.273       .  A
O1762      C1767   1.267       .  A
O1763      C1766   1.263       .  A
O1764      C1776   1.282       .  A
O1765      C1778   1.268       .  A
C1766      C2068   1.500       .  S
C1767      C1802   1.474       .  S
O1769      C1772   1.274       .  A
O1770      C1772   1.269       .  A
C1772      C1819   1.484       .  S
O1773      C1778   1.265   1_455  A
O1774      C1776   1.269       .  A
C1775      O1777   1.270       .  A
C1775      C2152   1.505   1_554  S
C1776      C1861   1.475       .  S
C1778      C1959   1.468   1_655  S
Fe1779     O1795   2.021       .  S
Fe1779     O1792   2.081       .  S
Fe1779     O1784   2.034       .  S
Fe1779     O1790   1.956       .  S
Fe1780     O1783   2.090       .  S
Fe1780     O1787   2.043       .  S
Fe1780     O1791   2.086       .  S
Fe1780     O1796   2.053       .  S
Fe1780     O1790   1.933       .  S
Fe1781     O1799   2.069       .  S
Fe1781     O1786   2.098       .  S
Fe1781     O1793   2.083       .  S
Fe1781     O1782   2.102       .  S
Fe1781     O1790   1.955       .  S
O1782      C1789   1.272       .  A
O1783      C1797   1.271       .  A
O1784      C1789   1.262       .  A
O1785      C1788   1.277       .  A
O1786      C1798   1.283       .  A
O1787      C1800   1.267       .  A
C1788      C2295   1.499       .  S
C1789      C1805   1.470       .  S
O1791      C1794   1.275       .  A
O1792      C1794   1.272       .  A
C1794      C1914   1.491       .  S
O1795      C1800   1.261       .  A
O1796      C1798   1.272       .  A
C1797      O1799   1.265       .  A
C1797      C2124   1.508       .  S
C1798      C1830   1.475       .  S
C1800      C2001   1.443       .  S
C1801      C1806   1.393       .  A
C1801      H1808   1.084       .  S
C1802      C1803   1.411       .  A
C1803      C1804   1.410       .  A
C1803      N1810   1.437       .  S
C1804      H1809   1.084       .  S
C1805      C1806   1.409       .  A
C1806      N1807   1.434       .  S
N1807      H1811   1.045       .  S
N1807      H1812   1.046       .  S
N1810      H1813   1.045       .  S
N1810      H1814   1.046       .  S
C1815      C1816   1.401       .  A
C1815      C1820   1.403       .  A
C1815      H1822   1.084       .  S
C1816      C1817   1.414       .  A
C1817      C1818   1.414       .  A
C1817      N1824   1.438       .  S
C1818      C1819   1.403       .  A
C1818      H1823   1.083       .  S
C1819      C1820   1.412       .  A
C1820      N1821   1.433       .  S
N1821      H1825   1.046       .  S
N1821      H1826   1.045   1_655  S
N1824      H1827   1.044       .  S
N1824      H1828   1.046       .  S
C1829      C1830   1.406       .  A
C1829      C1834   1.404       .  A
C1829      H1836   1.085       .  S
C1830      C1831   1.415       .  A
C1831      C1832   1.406       .  A
C1831      N1838   1.438       .  S
C1832      C1833   1.409       .  A
C1832      H1837   1.084       .  S
C1833      C1834   1.408       .  A
C1834      N1835   1.430       .  S
N1835      H1839   1.046       .  S
N1835      H1840   1.046       .  S
N1838      H1841   1.044       .  S
N1838      H1842   1.045       .  S
C1843      C2612   1.405       .  A
C1843      C1848   1.413       .  A
C1843      H1850   1.084       .  S
C1844      C2611   1.405   1_545  A
C1844      C1845   1.407       .  A
C1845      C1846   1.399       .  A
C1845      N1852   1.439       .  S
C1846      C2615   1.408   1_545  A
C1846      H1851   1.084       .  S
C1847      C2614   1.405       .  A
C1847      C1848   1.413       .  A
C1848      N1849   1.437       .  S
N1849      H1853   1.046       .  S
N1849      H1854   1.045       .  S
N1852      H1855   1.046       .  S
N1852      H1856   1.046       .  S
C1857      C1858   1.409       .  A
C1857      C1862   1.412       .  A
C1857      H1864   1.084       .  S
C1858      C1859   1.407       .  A
C1859      C1860   1.403       .  A
C1859      N1866   1.433       .  S
C1860      C1861   1.407       .  A
C1860      H1865   1.085       .  S
C1861      C1862   1.410       .  A
C1862      N1863   1.438       .  S
N1863      H1867   1.046       .  S
N1863      H1868   1.046       .  S
N1866      H1869   1.045       .  S
N1866      H1870   1.046       .  S
C1871      C1872   1.407       .  A
C1871      C1876   1.404       .  A
C1871      H1878   1.084       .  S
C1872      C1873   1.416       .  A
C1873      C1874   1.405       .  A
C1873      N1880   1.439       .  S
C1874      C1875   1.407       .  A
C1874      H1879   1.084       .  S
C1875      C1876   1.413       .  A
C1876      N1877   1.431       .  S
N1877      H1881   1.044       .  S
N1877      H1882   1.046       .  S
N1880      H1883   1.044       .  S
N1880      H1884   1.045       .  S
C1885      C1886   1.401       .  A
C1885      C1890   1.408       .  A
C1885      H1892   1.084       .  S
C1886      C1887   1.414       .  A
C1887      C1888   1.403       .  A
C1887      N1894   1.432       .  S
C1888      C1889   1.402       .  A
C1888      H1893   1.084       .  S
C1889      C1890   1.418       .  A
C1890      N1891   1.439       .  S
N1891      H1895   1.046       .  S
N1891      H1896   1.045       .  S
N1894      H1897   1.045       .  S
N1894      H1898   1.044       .  S
C1899      C1900   1.406       .  A
C1899      C1904   1.408       .  A
C1899      H1906   1.084       .  S
C1900      C1901   1.407       .  A
C1901      C1902   1.400       .  A
C1901      N1908   1.439       .  S
C1902      C1903   1.408       .  A
C1902      H1907   1.084       .  S
C1903      C1904   1.416       .  A
C1904      N1905   1.431       .  S
N1905      H1909   1.046       .  S
N1905      H1910   1.045       .  S
N1908      H1911   1.046       .  S
N1908      H1912   1.046       .  S
C1913      C1914   1.402       .  A
C1913      C1918   1.405       .  A
C1913      H1920   1.084       .  S
C1914      C1915   1.417       .  A
C1915      C1916   1.413       .  A
C1915      N1922   1.438       .  S
C1916      C1917   1.403       .  A
C1916      H1921   1.084       .  S
C1917      C1918   1.419       .  A
C1918      N1919   1.438       .  S
N1919      H1923   1.045       .  S
N1919      H1924   1.045       .  S
N1922      H1925   1.045       .  S
N1922      H1926   1.046       .  S
C1927      C1928   1.409       .  A
C1927      C1932   1.403   1_556  A
C1927      H1934   1.084       .  S
C1928      C1929   1.419   1_556  A
C1929      C1930   1.406       .  A
C1929      N1936   1.432       .  S
C1930      C1931   1.411       .  A
C1930      H1935   1.083       .  S
C1931      C1932   1.422       .  A
C1932      N1933   1.433       .  S
N1933      H1937   1.045       .  S
N1933      H1938   1.045       .  S
N1936      H1939   1.045       .  S
N1936      H1940   1.045       .  S
C1941      C1942   1.405       .  A
C1941      C1946   1.407       .  A
C1941      H1948   1.084   1_655  S
C1942      C1943   1.418       .  A
C1943      C1944   1.411       .  A
C1943      N1950   1.438       .  S
C1944      C1945   1.407       .  A
C1944      H1949   1.083       .  S
C1945      C1946   1.417       .  A
C1946      N1947   1.432   1_556  S
N1947      H1951   1.046       .  S
N1947      H1952   1.046       .  S
N1950      H1953   1.045       .  S
N1950      H1954   1.046       .  S
C1955      C1956   1.404       .  A
C1955      C1960   1.388       .  A
C1955      H1962   1.084       .  S
C1956      C1957   1.402       .  A
C1957      N1964   1.434       .  S
C1958      C1959   1.405   1_656  A
C1958      H1963   1.084       .  S
C1960      N1961   1.434       .  S
N1961      H1965   1.044   1_556  S
N1964      H1967   1.046       .  S
N1964      H1968   1.046   1_556  S
C1969      C1970   1.402       .  A
C1969      C1974   1.400       .  A
C1969      H1976   1.084       .  S
C1971      C1972   1.404       .  A
C1971      N1978   1.438       .  S
C1972      C1973   1.397       .  A
C1972      H1977   1.084       .  S
C1974      N1975   1.433       .  S
N1975      H1979   1.045       .  S
N1975      H1980   1.046       .  S
N1978      H1981   1.045       .  S
N1978      H1982   1.046       .  S
C1983      C1984   1.403       .  A
C1983      C1988   1.414       .  A
C1983      H1990   1.084       .  S
C1984      C1985   1.410       .  A
C1985      C1986   1.404       .  A
C1985      N1992   1.433       .  S
C1986      C1987   1.407       .  A
C1986      H1991   1.083       .  S
C1987      C1988   1.423       .  A
C1988      N1989   1.437       .  S
N1989      H1993   1.046       .  S
N1989      H1994   1.045       .  S
N1992      H1995   1.046       .  S
N1992      H1996   1.046       .  S
C1997      C2002   1.391       .  A
C1997      H2004   1.083       .  S
C1998      C1999   1.411       .  A
C1999      C2000   1.394       .  A
C1999      N2006   1.439       .  S
C2000      H2005   1.084       .  S
C2001      C2002   1.400       .  A
C2002      N2003   1.439       .  S
N2003      H2007   1.045       .  S
N2003      H2008   1.046       .  S
N2006      H2009   1.046       .  S
N2006      H2010   1.046       .  S
C2011      C2012   1.411       .  A
C2011      C2016   1.410       .  A
C2011      H2018   1.083       .  S
C2012      C2013   1.422       .  A
C2013      C2014   1.401       .  A
C2013      N2020   1.431   1_545  S
C2014      C2015   1.405       .  A
C2014      H2019   1.084       .  S
C2015      C2016   1.410       .  A
C2016      N2017   1.432       .  S
N2017      H2021   1.045       .  S
N2017      H2022   1.046       .  S
N2020      H2023   1.045       .  S
N2020      H2024   1.043       .  S
C2025      C2026   1.402       .  A
C2025      C2030   1.402       .  A
C2025      H2032   1.084       .  S
C2026      C2027   1.422       .  A
C2027      C2028   1.413       .  A
C2027      N2034   1.438       .  S
C2028      C2029   1.400       .  A
C2028      H2033   1.084       .  S
C2029      C2030   1.413       .  A
C2030      N2031   1.433       .  S
N2031      H2035   1.045       .  S
N2031      H2036   1.046       .  S
N2034      H2037   1.045       .  S
N2034      H2038   1.046       .  S
C2039      C2040   1.406       .  A
C2039      C2044   1.403       .  A
C2039      H2046   1.084       .  S
C2040      C2041   1.409       .  A
C2041      C2042   1.413       .  A
C2041      N2816   1.432   1_545  S
C2042      C2043   1.415       .  A
C2042      H2047   1.083   1_556  S
C2043      C2044   1.423       .  A
C2044      N2045   1.432       .  S
N2045      H2049   1.045       .  S
N2045      H2050   1.045       .  S
N2048      C2809   1.432       .  S
N2048      H2051   1.045       .  S
N2048      H2052   1.046       .  S
C2053      C2822   1.405   1_545  A
C2053      C2058   1.387       .  A
C2053      H2060   1.083       .  S
C2054      C2821   1.400       .  A
C2054      C2055   1.407   1_556  A
C2055      C2056   1.390       .  A
C2055      N2062   1.433       .  S
C2056      C2825   1.403       .  A
C2056      H2061   1.084       .  S
C2057      C2824   1.401   1_545  A
C2057      C2058   1.406   1_554  A
C2058      N2059   1.440       .  S
N2059      H2063   1.046       .  S
N2059      H2064   1.046       .  S
N2062      H2065   1.046   1_554  S
N2062      H2066   1.046       .  S
C2067      C2068   1.405       .  A
C2067      C2072   1.409   1_554  A
C2067      H2074   1.084       .  S
C2068      C2069   1.419       .  A
C2069      C2070   1.408       .  A
C2069      N2076   1.432       .  S
C2070      C2071   1.404   1_554  A
C2070      H2075   1.084       .  S
C2071      C2072   1.418       .  A
C2072      N2073   1.433       .  S
N2073      H2077   1.045       .  S
N2073      H2078   1.046       .  S
N2076      H2079   1.045       .  S
N2076      H2080   1.046       .  S
C2081      C2082   1.411       .  A
C2081      C2086   1.410       .  A
C2081      H2088   1.083       .  S
C2082      C2083   1.413       .  A
C2083      C2084   1.408       .  A
C2083      N2090   1.432       .  S
C2084      C2085   1.410       .  A
C2084      H2089   1.083       .  S
C2085      C2086   1.415       .  A
C2086      N2087   1.432       .  S
N2087      H2091   1.045       .  S
N2087      H2092   1.046       .  S
N2090      H2093   1.046       .  S
N2090      H2094   1.046       .  S
C2095      C2096   1.408       .  A
C2095      C2100   1.412       .  A
C2095      H2102   1.084       .  S
C2096      C2097   1.413       .  A
C2097      C2098   1.400       .  A
C2097      N2104   1.431       .  S
C2098      C2099   1.407       .  A
C2098      H2103   1.085       .  S
C2099      C2100   1.410       .  A
C2100      N2101   1.437       .  S
N2101      H2105   1.045       .  S
N2101      H2106   1.046       .  S
N2104      H2107   1.045       .  S
N2104      H2108   1.043       .  S
C2109      C2878   1.402       .  A
C2109      C2114   1.398       .  A
C2109      H2116   1.084       .  S
C2110      C2877   1.403   1_545  A
C2110      C2111   1.405       .  A
C2111      C2880   1.406       .  A
C2111      N2118   1.438       .  S
C2112      C2879   1.404       .  A
C2112      C2113   1.408       .  A
C2112      H2117   1.084       .  S
C2113      C2114   1.412       .  A
C2114      N2115   1.432       .  S
N2115      H2119   1.045       .  S
N2115      H2120   1.046       .  S
N2118      H2121   1.045       .  S
N2118      H2122   1.046       .  S
C2123      C2124   1.409       .  A
C2123      C2128   1.411       .  A
C2123      H2130   1.083       .  S
C2124      C2125   1.427       .  A
C2125      C2126   1.403       .  A
C2125      N2132   1.433       .  S
C2126      C2127   1.403       .  A
C2126      H2131   1.084       .  S
C2127      C2128   1.415       .  A
C2128      N2129   1.432       .  S
N2129      H2133   1.046       .  S
N2129      H2134   1.046       .  S
N2132      H2135   1.045       .  S
N2132      H2136   1.045       .  S
C2137      C2906   1.405   1_545  A
C2137      C2142   1.390       .  A
C2137      H2144   1.084       .  S
C2138      C2905   1.402       .  A
C2138      C2139   1.410       .  A
C2139      C2140   1.386       .  A
C2139      N2146   1.434       .  S
C2140      C2909   1.401       .  A
C2140      H2145   1.085       .  S
C2141      C2908   1.403   1_545  A
C2141      C2142   1.405       .  A
C2142      N2143   1.433       .  S
N2143      H2147   1.046       .  S
N2143      H2148   1.046       .  S
N2146      H2149   1.046       .  S
N2146      H2150   1.044       .  S
C2151      C2152   1.413   1_554  A
C2151      C2156   1.411   1_554  A
C2151      H2158   1.083       .  S
C2152      C2153   1.417       .  A
C2153      C2154   1.411       .  A
C2153      N2160   1.437       .  S
C2154      C2155   1.406       .  A
C2154      H2159   1.084       .  S
C2155      C2156   1.411       .  A
C2156      N2157   1.438       .  S
N2157      H2161   1.046   1_556  S
N2157      H2162   1.045       .  S
N2160      H2163   1.046       .  S
N2160      H2164   1.045       .  S
C2165      C2166   1.407       .  A
C2165      C2170   1.389       .  A
C2165      H2172   1.083       .  S
C2166      C2167   1.411   1_556  A
C2167      C2168   1.397       .  A
C2167      N2174   1.439       .  S
C2168      C2169   1.401       .  A
C2168      H2173   1.084       .  S
C2169      C2170   1.400   1_554  A
C2170      N2171   1.438       .  S
N2171      H2175   1.046       .  S
N2171      H2176   1.046       .  S
N2174      H2177   1.046       .  S
N2174      H2178   1.046       .  S
C2179      C2180   1.407       .  A
C2179      C2184   1.408       .  A
C2179      H2186   1.084       .  S
C2180      C2181   1.411       .  A
C2181      C2182   1.414       .  A
C2181      N2188   1.438       .  S
C2182      C2183   1.408       .  A
C2182      H2187   1.084       .  S
C2183      C2184   1.406       .  A
C2184      N2185   1.434       .  S
N2185      H2189   1.046       .  S
N2185      H2190   1.045       .  S
N2188      H2191   1.046       .  S
N2188      H2192   1.046       .  S
C2193      C2194   1.398       .  A
C2193      C2198   1.406       .  A
C2193      H2200   1.083       .  S
C2194      C2195   1.416       .  A
C2195      C2196   1.402       .  A
C2195      N2202   1.431       .  S
C2196      C2197   1.401       .  A
C2196      H2201   1.084       .  S
C2197      C2198   1.412       .  A
C2198      N2199   1.430       .  S
N2199      H2203   1.046       .  S
N2199      H2204   1.044       .  S
N2202      H2205   1.045       .  S
N2202      H2206   1.044       .  S
C2207      C2208   1.406       .  A
C2207      C2212   1.411   1_554  A
C2207      H2214   1.083       .  S
C2208      C2209   1.421       .  A
C2209      C2210   1.418       .  A
C2209      N2216   1.437       .  S
C2210      C2211   1.407   1_554  A
C2210      H2215   1.083       .  S
C2211      C2212   1.421       .  A
C2212      N2213   1.439       .  S
N2213      H2217   1.046       .  S
N2213      H2218   1.046       .  S
N2216      H2219   1.046       .  S
N2216      H2220   1.046       .  S
C2221      C2222   1.400       .  A
C2221      C2226   1.409       .  A
C2221      H2228   1.084       .  S
C2222      C2223   1.420       .  A
C2223      C2224   1.401       .  A
C2223      N2230   1.434       .  S
C2224      C2225   1.406       .  A
C2224      H2229   1.084       .  S
C2225      C2226   1.423       .  A
C2226      N2227   1.438       .  S
N2227      H2231   1.046       .  S
N2227      H2232   1.044       .  S
N2230      H2233   1.045       .  S
N2230      H2234   1.044       .  S
C2235      C2236   1.398       .  A
C2235      C2240   1.394       .  A
C2235      H2242   1.085       .  S
C2236      C2237   1.405       .  A
C2237      C2238   1.384       .  A
C2237      N2244   1.435       .  S
C2238      C2239   1.406       .  A
C2238      H2243   1.084       .  S
C2239      C2240   1.409       .  A
C2240      N2241   1.433       .  S
N2241      H2245   1.046       .  S
N2241      H2246   1.045       .  S
N2244      H2247   1.046       .  S
N2244      H2248   1.044       .  S
C2249      C2250   1.404       .  A
C2249      C2254   1.404       .  A
C2249      H2256   1.081       .  S
C2250      C2251   1.408       .  A
C2251      C2252   1.408       .  A
C2251      N2258   1.438       .  S
C2252      C2253   1.406       .  A
C2252      H2257   1.084       .  S
C2253      C2254   1.404       .  A
C2254      N2255   1.437       .  S
N2255      H2259   1.045       .  S
N2255      H2260   1.045       .  S
N2258      H2261   1.046       .  S
N2258      H2262   1.046       .  S
C2263      C2264   1.399       .  A
C2263      C2268   1.402       .  A
C2263      H2270   1.084       .  S
C2264      C2265   1.410       .  A
C2265      C2266   1.405       .  A
C2265      N2272   1.432       .  S
C2266      C2267   1.401       .  A
C2266      H2271   1.084       .  S
C2267      C2268   1.412       .  A
C2268      N2269   1.433       .  S
N2269      H2273   1.045       .  S
N2269      H2274   1.046       .  S
N2272      H2275   1.046       .  S
N2272      H2276   1.046       .  S
C2277      C2278   1.410       .  A
C2277      C2282   1.407       .  A
C2277      H2284   1.084       .  S
C2278      C2279   1.406       .  A
C2279      C2280   1.407       .  A
C2279      N2286   1.432       .  S
C2280      C2281   1.405       .  A
C2280      H2285   1.083       .  S
C2281      C2282   1.405       .  A
C2282      N2283   1.437       .  S
N2283      H2287   1.045       .  S
N2283      H2288   1.046       .  S
N2286      H2289   1.046       .  S
N2286      H2290   1.045       .  S
C2291      C2292   1.411       .  A
C2291      C2296   1.410       .  A
C2291      H2298   1.083       .  S
C2292      C2293   1.418       .  A
C2293      C2294   1.410       .  A
C2293      N2300   1.438       .  S
C2294      C2295   1.407       .  A
C2294      H2299   1.083       .  S
C2295      C2296   1.413       .  A
C2296      N2297   1.432       .  S
N2297      H2301   1.046   1_655  S
N2297      H2302   1.046       .  S
N2300      H2303   1.046       .  S
N2300      H2304   1.045       .  S
Fe2305     O2321   2.032       .  S
Fe2305     O2311   2.047       .  S
Fe2305     O2318   2.057       .  S
Fe2305     O2310   2.061       .  S
Fe2305     O2316   1.968       .  S
Fe2306     O2309   2.061       .  S
Fe2306     O2313   2.123       .  S
Fe2306     O2317   2.076       .  S
Fe2306     O2322   2.130       .  S
Fe2306     O2316   1.967       .  S
Fe2307     O2325   2.088       .  S
Fe2307     O2312   2.016       .  S
Fe2307     O2319   2.024       .  S
Fe2307     O2308   2.085       .  S
Fe2307     O2316   1.957       .  S
O2308      C2315   1.274       .  A
O2309      C2323   1.265       .  A
O2310      C2315   1.269       .  A
O2311      C2314   1.265       .  A
O2312      C2324   1.265       .  A
O2313      C2326   1.284       .  A
C2314      O2319   1.259       .  A
C2314      C3004   1.437       .  S
C2315      C3021   1.476       .  S
O2317      C2320   1.267       .  A
O2318      C2320   1.265       .  A
C2320      C3035   1.478       .  S
O2321      C2326   1.265       .  A
O2322      C2324   1.285       .  A
C2323      O2325   1.269       .  A
C2323      C3060   1.504       .  S
C2324      C3046   1.480       .  S
C2326      C2990   1.492       .  S
Fe2327     O2343   2.039       .  S
Fe2327     O2333   2.045       .  S
Fe2327     O2340   2.049       .  S
Fe2327     O2332   2.056       .  S
Fe2327     O2338   1.968       .  S
Fe2328     O2331   2.057       .  S
Fe2328     O2335   2.122       .  S
Fe2328     O2339   2.075       .  S
Fe2328     O2344   2.127       .  S
Fe2328     O2338   1.962       .  S
Fe2329     O2347   2.106       .  S
Fe2329     O2334   2.023       .  S
Fe2329     O2341   2.026       .  S
Fe2329     O2330   2.103       .  S
Fe2329     O2338   1.959       .  S
O2330      C2337   1.278       .  A
O2331      C2345   1.264       .  A
O2332      C2337   1.269       .  A
O2333      C2336   1.264       .  A
O2334      C2346   1.266       .  A
O2335      C2348   1.285       .  A
C2336      O2341   1.261       .  A
C2336      C2934   1.464       .  S
C2337      C2951   1.478       .  S
O2339      C2342   1.266       .  A
O2340      C2342   1.262       .  A
C2342      C3032   1.476       .  S
O2343      C2348   1.269       .  A
O2344      C2346   1.284       .  A
C2345      O2347   1.273       .  A
C2345      C2979   1.508       .  S
C2346      C2965   1.481       .  S
C2348      C2923   1.491       .  S
Fe2349     O2355   2.028       .  S
Fe2349     O2362   2.032       .  S
Fe2349     O2354   2.085       .  S
Fe2349     O2360   1.958       .  S
Fe2350     O2353   2.077       .  S
Fe2350     O2357   2.086       .  S
Fe2350     O2361   2.097       .  S
Fe2350     O2366   2.097       .  S
Fe2350     O2360   1.953       .  S
Fe2351     O2369   2.087       .  S
Fe2351     O2356   2.051       .  S
Fe2351     O2363   2.039       .  S
Fe2351     O2352   2.081       .  S
Fe2351     O2360   1.938       .  S
O2352      C2359   1.274       .  A
O2353      C2367   1.270       .  A
O2354      C2359   1.271       .  A
O2355      C2358   1.264       .  A
O2356      C2368   1.270       .  A
C2358      O2363   1.265       .  A
C2358      C2909   1.446       .  S
C2359      C2864   1.492       .  S
O2361      C2364   1.273       .  A
O2362      C2364   1.264       .  A
C2364      C2878   1.463       .  S
O2365      C2370   1.268       .  A
O2366      C2368   1.280       .  A
C2367      O2369   1.271       .  A
C2367      C2853   1.507       .  S
C2368      C3018   1.475       .  S
C2370      C2895   1.490       .  S
Fe2371     O2377   2.028       .  S
Fe2371     O2384   2.039       .  S
Fe2371     O2376   2.064       .  S
Fe2371     O2382   1.969       .  S
Fe2372     O2375   2.055       .  S
Fe2372     O2379   2.129       .  S
Fe2372     O2383   2.079       .  S
Fe2372     O2388   2.133       .  S
Fe2372     O2382   1.965       .  S
Fe2373     O2391   2.094       .  S
Fe2373     O2378   2.027       .  S
Fe2373     O2385   2.029       .  S
Fe2373     O2374   2.106       .  S
Fe2373     O2382   1.954       .  S
O2374      C2381   1.279       .  A
O2375      C2389   1.262       .  A
O2376      C2381   1.271       .  A
O2377      C2380   1.261       .  A
O2378      C2390   1.268       .  A
C2380      O2385   1.258       .  A
C2380      C2822   1.461       .  S
C2381      C2962   1.483       .  S
O2383      C2386   1.267       .  A
O2384      C2386   1.259       .  A
C2386      C2881   1.476       .  S
O2387      C2392   1.269       .  A
O2388      C2390   1.287       .  A
C2389      O2391   1.270       .  A
C2389      C2839   1.497       .  S
C2390      C2797   1.484       .  S
C2392      C2808   1.488       .  S
Fe2393     O2399   2.036       .  S
Fe2393     O2406   2.039   1_655  S
Fe2393     O2398   2.058       .  S
Fe2393     O2404   1.965       .  S
Fe2394     O2397   2.052       .  S
Fe2394     O2401   2.127       .  S
Fe2394     O2405   2.079       .  S
Fe2394     O2410   2.139       .  S
Fe2394     O2404   1.964       .  S
Fe2395     O2413   2.091       .  S
Fe2395     O2400   2.015       .  S
Fe2395     O2407   2.021       .  S
Fe2395     O2396   2.102       .  S
Fe2395     O2404   1.950       .  S
O2396      C2403   1.278       .  A
O2397      C2411   1.263       .  A
O2398      C2403   1.270       .  A
O2399      C2402   1.262       .  A
O2400      C2412   1.265       .  A
C2402      O2407   1.258       .  A
C2402      C2766   1.458       .  S
C2403      C3049   1.478       .  S
O2405      C2408   1.268       .  A
O2406      C2408   1.261   1_455  A
C2408      C2738   1.483   1_655  S
O2409      C2414   1.269       .  A
O2410      C2412   1.287       .  A
C2411      O2413   1.270       .  A
C2411      C2783   1.499       .  S
C2412      C2867   1.484       .  S
C2414      C2752   1.493       .  S
Fe2415     O2421   2.033       .  S
Fe2415     O2428   2.038       .  S
Fe2415     O2420   2.085       .  S
Fe2415     O2426   1.955       .  S
Fe2416     O2419   2.086       .  S
Fe2416     O2423   2.089       .  S
Fe2416     O2427   2.104       .  S
Fe2416     O2432   2.103       .  S
Fe2416     O2426   1.953       .  S
Fe2417     O2435   2.086       .  S
Fe2417     O2422   2.039       .  S
Fe2417     O2429   2.033       .  S
Fe2417     O2418   2.080       .  S
Fe2417     O2426   1.942       .  S
O2418      C2425   1.276       .  A
O2419      C2433   1.272       .  A
O2420      C2425   1.272       .  A
O2421      C2424   1.264       .  A
O2422      C2434   1.266       .  A
C2424      O2429   1.264       .  A
C2424      C2724   1.451       .  S
C2425      C2794   1.493       .  S
O2427      C2430   1.275       .  A
O2428      C2430   1.265       .  A
C2430      C2741   1.471       .  S
O2431      C2436   1.267   1_655  A
O2432      C2434   1.280       .  A
C2433      O2435   1.272       .  A
C2433      C2696   1.507       .  S
C2434      C2948   1.472       .  S
C2436      C2710   1.507   1_455  S
Fe2437     O2453   2.038       .  S
Fe2437     O2443   2.068       .  S
Fe2437     O2450   2.075       .  S
Fe2437     O2442   2.037       .  S
Fe2437     O2448   1.955       .  S
Fe2438     O2441   2.097       .  S
Fe2438     O2445   2.037       .  S
Fe2438     O2449   2.094       .  S
Fe2438     O2454   2.043       .  S
Fe2438     O2448   1.936       .  S
Fe2439     O2457   2.074       .  S
Fe2439     O2444   2.108       .  S
Fe2439     O2451   2.090       .  S
Fe2439     O2440   2.111       .  S
Fe2439     O2448   1.954       .  S
O2440      C2447   1.277       .  A
O2441      C2455   1.275       .  A
O2442      C2447   1.266       .  A
O2443      C2446   1.267       .  A
O2444      C2456   1.283       .  A
O2445      C2458   1.266       .  A
C2446      O2451   1.272       .  A
C2446      C2850   1.503       .  S
C2447      C2671   1.473       .  S
O2449      C2452   1.277       .  A
O2450      C2452   1.270       .  A
C2452      C2657   1.491       .  S
O2453      C2458   1.265       .  A
O2454      C2456   1.268       .  A
C2455      O2457   1.268       .  A
C2455      C2755   1.508       .  S
C2456      C2685   1.477       .  S
C2458      C3007   1.451       .  S
Fe2459     O2475   2.017       .  S
Fe2459     O2465   2.073       .  S
Fe2459     O2472   2.089       .  S
Fe2459     O2464   2.027       .  S
Fe2459     O2470   1.953       .  S
Fe2460     O2463   2.067       .  S
Fe2460     O2467   2.056       .  S
Fe2460     O2471   2.074       .  S
Fe2460     O2476   2.060       .  S
Fe2460     O2470   1.928       .  S
Fe2461     O2479   2.091       .  S
Fe2461     O2466   2.110       .  S
Fe2461     O2473   2.089       .  S
Fe2461     O2462   2.124       .  S
Fe2461     O2470   1.955       .  S
O2462      C2469   1.279       .  A
O2463      C2477   1.267       .  A
O2464      C2469   1.264       .  A
O2465      C2468   1.270       .  A
O2466      C2478   1.285       .  A
O2467      C2480   1.268       .  A
C2468      O2473   1.272       .  A
C2468      C2699   1.509       .  S
C2469      C2668   1.481       .  S
O2471      C2474   1.273       .  A
O2472      C2474   1.273       .  A
C2474      C2626   1.486       .  S
O2475      C2480   1.259       .  A
O2476      C2478   1.272       .  A
C2477      O2479   1.272       .  A
C2477      C2811   1.504   1_554  S
C2478      C2640   1.486       .  S
C2480      C2937   1.444       .  S
Fe2481     O2497   2.030       .  S
Fe2481     O2494   2.086       .  S
Fe2481     O2486   2.030       .  S
Fe2481     O2492   1.942       .  S
Fe2482     O2485   2.075       .  S
Fe2482     O2489   2.044       .  S
Fe2482     O2493   2.077       .  S
Fe2482     O2498   2.045       .  S
Fe2482     O2492   1.934       .  S
Fe2483     O2501   2.091       .  S
Fe2483     O2488   2.106       .  S
Fe2483     O2495   2.082       .  S
Fe2483     O2484   2.112       .  S
Fe2483     O2492   1.951       .  S
O2484      C2491   1.277       .  A
O2485      C2499   1.273       .  A
O2486      C2491   1.265       .  A
O2487      C2490   1.269       .  A
O2488      C2500   1.282       .  A
O2489      C2502   1.261       .  A
C2490      C2780   1.504       .  S
C2491      C2615   1.486       .  S
O2493      C2496   1.276       .  A
O2494      C2496   1.275       .  A
C2496      C2601   1.496       .  S
O2497      C2502   1.262       .  A
O2498      C2500   1.267       .  A
C2499      O2501   1.272       .  A
C2499      C2993   1.504       .  S
C2500      C2654   1.475       .  S
C2502      C2906   1.463       .  S
Fe2503     O2519   2.029       .  S
Fe2503     O2516   2.097       .  S
Fe2503     O2508   2.035       .  S
Fe2503     O2514   1.953       .  S
Fe2504     O2507   2.085       .  S
Fe2504     O2511   2.033       .  S
Fe2504     O2515   2.080       .  S
Fe2504     O2520   2.038       .  S
Fe2504     O2514   1.932       .  S
Fe2505     O2523   2.082       .  S
Fe2505     O2510   2.109       .  S
Fe2505     O2517   2.091       .  S
Fe2505     O2506   2.108       .  S
Fe2505     O2514   1.953       .  S
O2506      C2513   1.276       .  A
O2507      C2521   1.273       .  A
O2508      C2513   1.267       .  A
O2509      C2512   1.268       .  A
O2510      C2522   1.282       .  A
O2511      C2524   1.265       .  A
C2512      C2976   1.506       .  S
C2513      C2612   1.472       .  S
O2515      C2518   1.273       .  A
O2516      C2518   1.274       .  A
C2518      C2643   1.503       .  S
O2519      C2524   1.264       .  A
O2520      C2522   1.268       .  A
C2521      O2523   1.270       .  A
C2521      C2713   1.504       .  S
C2522      C2584   1.474       .  S
C2524      C2825   1.458       .  S
Fe2525     O2541   2.035   1_655  S
Fe2525     O2538   2.063       .  S
Fe2525     O2530   2.030       .  S
Fe2525     O2536   1.956       .  S
Fe2526     O2529   2.095       .  S
Fe2526     O2533   2.032       .  S
Fe2526     O2537   2.099       .  S
Fe2526     O2542   2.039       .  S
Fe2526     O2536   1.942       .  S
Fe2527     O2545   2.064       .  S
Fe2527     O2532   2.108       .  S
Fe2527     O2539   2.090       .  S
Fe2527     O2528   2.099       .  S
Fe2527     O2536   1.957       .  S
O2528      C2535   1.275       .  A
O2529      C2543   1.274       .  A
O2530      C2535   1.267       .  A
O2531      C2534   1.265       .  A
O2532      C2544   1.282       .  A
O2533      C2546   1.264       .  A
C2534      C2836   1.496       .  S
C2535      C2570   1.476   1_655  S
O2537      C2540   1.277       .  A
O2538      C2540   1.267       .  A
C2540      C2587   1.489       .  S
O2541      C2546   1.264   1_455  A
O2542      C2544   1.267       .  A
C2543      O2545   1.268       .  A
C2543      C2920   1.505   1_554  S
C2544      C2629   1.477       .  S
C2546      C2727   1.452       .  S
Fe2547     O2563   2.028       .  S
Fe2547     O2560   2.082       .  S
Fe2547     O2552   2.036       .  S
Fe2547     O2558   1.948       .  S
Fe2548     O2551   2.076       .  S
Fe2548     O2555   2.044       .  S
Fe2548     O2559   2.077       .  S
Fe2548     O2564   2.055       .  S
Fe2548     O2558   1.928       .  S
Fe2549     O2567   2.072       .  S
Fe2549     O2554   2.105       .  S
Fe2549     O2561   2.095       .  S
Fe2549     O2550   2.102       .  S
Fe2549     O2558   1.948       .  S
O2550      C2557   1.273       .  A
O2551      C2565   1.269       .  A
O2552      C2557   1.264       .  A
O2553      C2556   1.271       .  A
O2554      C2566   1.285       .  A
O2555      C2568   1.267       .  A
C2556      C3063   1.503       .  S
C2557      C2573   1.473       .  S
O2559      C2562   1.274       .  A
O2560      C2562   1.272       .  A
C2562      C2682   1.486       .  S
O2563      C2568   1.263       .  A
O2564      C2566   1.272       .  A
C2565      O2567   1.265       .  A
C2565      C2892   1.501       .  S
C2566      C2598   1.480       .  S
C2568      C2769   1.447       .  S
C2569      C2574   1.391       .  A
C2569      H2576   1.084       .  S
C2570      C2571   1.412   1_455  A
C2571      C2572   1.410       .  A
C2571      N2578   1.437       .  S
C2572      H2577   1.084       .  S
C2573      C2574   1.409       .  A
C2574      N2575   1.434       .  S
N2575      H2579   1.044       .  S
N2575      H2580   1.046       .  S
N2578      H2581   1.045       .  S
N2578      H2582   1.046       .  S
C2583      C2584   1.399       .  A
C2583      C2588   1.405       .  A
C2583      H2590   1.084       .  S
C2584      C2585   1.414       .  A
C2585      C2586   1.413       .  A
C2585      N2592   1.437       .  S
C2586      C2587   1.402       .  A
C2586      H2591   1.083       .  S
C2587      C2588   1.416       .  A
C2588      N2589   1.433       .  S
N2589      H2593   1.045       .  S
N2589      H2594   1.045   1_655  S
N2592      H2595   1.044       .  S
N2592      H2596   1.046       .  S
C2597      C2598   1.408       .  A
C2597      C2602   1.405       .  A
C2597      H2604   1.085       .  S
C2598      C2599   1.414       .  A
C2599      C2600   1.408       .  A
C2599      N2606   1.438       .  S
C2600      C2601   1.412       .  A
C2600      H2605   1.084       .  S
C2601      C2602   1.410       .  A
C2602      N2603   1.432       .  S
N2603      H2607   1.046       .  S
N2603      H2608   1.046       .  S
N2606      H2609   1.043       .  S
N2606      H2610   1.045       .  S
C2611      C2616   1.412       .  A
C2611      H2618   1.084       .  S
C2612      C2613   1.406       .  A
C2613      C2614   1.398       .  A
C2613      N2620   1.439       .  S
C2614      H2619   1.084       .  S
C2615      C2616   1.413       .  A
C2616      N2617   1.437       .  S
N2617      H2621   1.046       .  S
N2617      H2622   1.046       .  S
N2620      H2623   1.045       .  S
N2620      H2624   1.047       .  S
C2625      C2626   1.407       .  A
C2625      C2630   1.413       .  A
C2625      H2632   1.084       .  S
C2626      C2627   1.407       .  A
C2627      C2628   1.404       .  A
C2627      N2634   1.432       .  S
C2628      C2629   1.406       .  A
C2628      H2633   1.084       .  S
C2629      C2630   1.412       .  A
C2630      N2631   1.438       .  S
N2631      H2635   1.046       .  S
N2631      H2636   1.046       .  S
N2634      H2637   1.046       .  S
N2634      H2638   1.046       .  S
C2639      C2640   1.404       .  A
C2639      C2644   1.402       .  A
C2639      H2646   1.084       .  S
C2640      C2641   1.416       .  A
C2641      C2642   1.412       .  A
C2641      N2648   1.437       .  S
C2642      C2643   1.412       .  A
C2642      H2647   1.084       .  S
C2643      C2644   1.418       .  A
C2644      N2645   1.430       .  S
N2645      H2649   1.044       .  S
N2645      H2650   1.044       .  S
N2648      H2651   1.044       .  S
N2648      H2652   1.046       .  S
C2653      C2654   1.402       .  A
C2653      C2658   1.410       .  A
C2653      H2660   1.084       .  S
C2654      C2655   1.415       .  A
C2655      C2656   1.405       .  A
C2655      N2662   1.432       .  S
C2656      C2657   1.403       .  A
C2656      H2661   1.084       .  S
C2657      C2658   1.419       .  A
C2658      N2659   1.438       .  S
N2659      H2663   1.046       .  S
N2659      H2664   1.045       .  S
N2662      H2665   1.046       .  S
N2662      H2666   1.044       .  S
C2667      C2668   1.407       .  A
C2667      C2672   1.395       .  A
C2667      H2674   1.084       .  S
C2668      C2669   1.410       .  A
C2669      C2670   1.414       .  A
C2669      N2676   1.436       .  S
C2670      C2671   1.407       .  A
C2670      H2675   1.084       .  S
C2671      C2672   1.408       .  A
C2672      N2673   1.434       .  S
N2673      H2677   1.045       .  S
N2673      H2678   1.046       .  S
N2676      H2679   1.045       .  S
N2676      H2680   1.046       .  S
C2681      C2682   1.401       .  A
C2681      C2686   1.403       .  A
C2681      H2688   1.084       .  S
C2682      C2683   1.416       .  A
C2683      C2684   1.413       .  A
C2683      N2690   1.438       .  S
C2684      C2685   1.404       .  A
C2684      H2689   1.084       .  S
C2685      C2686   1.419       .  A
C2686      N2687   1.439       .  S
N2687      H2691   1.046       .  S
N2687      H2692   1.045       .  S
N2690      H2693   1.046       .  S
N2690      H2694   1.045       .  S
C2695      C2696   1.410       .  A
C2695      C2700   1.406   1_556  A
C2695      H2702   1.084       .  S
C2696      C2697   1.419   1_556  A
C2697      C2698   1.407       .  A
C2697      N2704   1.432       .  S
C2698      C2699   1.412       .  A
C2698      H2703   1.083       .  S
C2699      C2700   1.422       .  A
C2700      N2701   1.432       .  S
N2701      H2705   1.046       .  S
N2701      H2706   1.045       .  S
N2704      H2707   1.045       .  S
N2704      H2708   1.046   1_554  S
C2709      C2710   1.407       .  A
C2709      C2714   1.410       .  A
C2709      H2716   1.084   1_655  S
C2710      C2711   1.423       .  A
C2711      C2712   1.413       .  A
C2711      N2718   1.438       .  S
C2712      C2713   1.405   1_556  A
C2712      H2717   1.083       .  S
C2713      C2714   1.417   1_554  A
C2714      N2715   1.432   1_556  S
N2715      H2719   1.046       .  S
N2715      H2720   1.046       .  S
N2718      H2721   1.046       .  S
N2718      H2722   1.046       .  S
C2723      C2724   1.405       .  A
C2723      C2728   1.387       .  A
C2723      H2730   1.084       .  S
C2724      C2725   1.401       .  A
C2725      N2732   1.434       .  S
C2726      C2727   1.407       .  A
C2726      H2731   1.084       .  S
C2728      N2729   1.434       .  S
N2729      H2733   1.044   1_556  S
N2732      H2735   1.046       .  S
N2732      H2736   1.046   1_556  S
C2737      C2738   1.405   1_655  A
C2737      C2742   1.402       .  A
C2737      H2744   1.084       .  S
C2739      C2740   1.406       .  A
C2739      N2746   1.438       .  S
C2740      C2741   1.398       .  A
C2740      H2745   1.084       .  S
C2742      N2743   1.432       .  S
N2743      H2747   1.045       .  S
N2743      H2748   1.046       .  S
N2746      H2749   1.046       .  S
N2746      H2750   1.046       .  S
C2751      C2752   1.402       .  A
C2751      C2756   1.415       .  A
C2751      H2758   1.084       .  S
C2752      C2753   1.414       .  A
C2753      C2754   1.408       .  A
C2753      N2760   1.433       .  S
C2754      C2755   1.406       .  A
C2754      H2759   1.083       .  S
C2755      C2756   1.426       .  A
C2756      N2757   1.438       .  S
N2757      H2761   1.046       .  S
N2757      H2762   1.045       .  S
N2760      H2763   1.046       .  S
N2760      H2764   1.046       .  S
C2765      C2770   1.394       .  A
C2765      H2772   1.083       .  S
C2766      C2767   1.409       .  A
C2767      C2768   1.390       .  A
C2767      N2774   1.433       .  S
C2768      H2773   1.085       .  S
C2769      C2770   1.403       .  A
C2770      N2771   1.439       .  S
N2771      H2775   1.046       .  S
N2771      H2776   1.046       .  S
N2774      H2777   1.046       .  S
N2774      H2778   1.046       .  S
C2779      C2780   1.412       .  A
C2779      C2784   1.409       .  A
C2779      H2786   1.083       .  S
C2780      C2781   1.421       .  A
C2781      C2782   1.403       .  A
C2781      N2788   1.432       .  S
C2782      C2783   1.408       .  A
C2782      H2787   1.084       .  S
C2783      C2784   1.411       .  A
C2784      N2785   1.432       .  S
N2785      H2789   1.046       .  S
N2785      H2790   1.045       .  S
N2788      H2791   1.046       .  S
N2788      H2792   1.044       .  S
C2793      C2794   1.401       .  A
C2793      C2798   1.404       .  A
C2793      H2800   1.084       .  S
C2794      C2795   1.421       .  A
C2795      C2796   1.415       .  A
C2795      N2802   1.438       .  S
C2796      C2797   1.402       .  A
C2796      H2801   1.084       .  S
C2797      C2798   1.413       .  A
C2798      N2799   1.432       .  S
N2799      H2803   1.045       .  S
N2799      H2804   1.046       .  S
N2802      H2805   1.045       .  S
N2802      H2806   1.046       .  S
C2807      C2808   1.405       .  A
C2807      C2812   1.400       .  A
C2807      H2814   1.085       .  S
C2808      C2809   1.408       .  A
C2809      C2810   1.411       .  A
C2810      C2811   1.413       .  A
C2810      H2815   1.083   1_556  S
C2811      C2812   1.423       .  A
C2812      N2813   1.431       .  S
N2813      H2817   1.045       .  S
N2813      H2818   1.043       .  S
N2816      H2819   1.045       .  S
N2816      H2820   1.046       .  S
C2821      C2826   1.388       .  A
C2821      H2828   1.084       .  S
C2822      C2823   1.410   1_556  A
C2823      C2824   1.392       .  A
C2823      N2830   1.433       .  S
C2824      H2829   1.084       .  S
C2825      C2826   1.413   1_554  A
C2826      N2827   1.440       .  S
N2827      H2831   1.046       .  S
N2827      H2832   1.046       .  S
N2830      H2833   1.046       .  S
N2830      H2834   1.046       .  S
C2835      C2836   1.405       .  A
C2835      C2840   1.411   1_554  A
C2835      H2842   1.084       .  S
C2836      C2837   1.414       .  A
C2837      C2838   1.410       .  A
C2837      N2844   1.432       .  S
C2838      C2839   1.405   1_554  A
C2838      H2843   1.084       .  S
C2839      C2840   1.418       .  A
C2840      N2841   1.438       .  S
N2841      H2845   1.046       .  S
N2841      H2846   1.046       .  S
N2844      H2847   1.046       .  S
N2844      H2848   1.045       .  S
C2849      C2850   1.411       .  A
C2849      C2854   1.415       .  A
C2849      H2856   1.083       .  S
C2850      C2851   1.412       .  A
C2851      C2852   1.406       .  A
C2851      N2858   1.432       .  S
C2852      C2853   1.410       .  A
C2852      H2857   1.083       .  S
C2853      C2854   1.418       .  A
C2854      N2855   1.438       .  S
N2855      H2859   1.046       .  S
N2855      H2860   1.046       .  S
N2858      H2861   1.046       .  S
N2858      H2862   1.046       .  S
C2863      C2864   1.411       .  A
C2863      C2868   1.415       .  A
C2863      H2870   1.084       .  S
C2864      C2865   1.413       .  A
C2865      C2866   1.401       .  A
C2865      N2872   1.432       .  S
C2866      C2867   1.408       .  A
C2866      H2871   1.085       .  S
C2867      C2868   1.410       .  A
C2868      N2869   1.437       .  S
N2869      H2873   1.045       .  S
N2869      H2874   1.046       .  S
N2872      H2875   1.046       .  S
N2872      H2876   1.044       .  S
C2877      C2882   1.399       .  A
C2877      H2884   1.084       .  S
C2878      C2879   1.405       .  A
C2879      N2886   1.438       .  S
C2880      C2881   1.408   1_545  A
C2880      H2885   1.084       .  S
C2881      C2882   1.411       .  A
C2882      N2883   1.432       .  S
N2883      H2887   1.044       .  S
N2883      H2888   1.046       .  S
N2886      H2889   1.046       .  S
N2886      H2890   1.046       .  S
C2891      C2892   1.408       .  A
C2891      C2896   1.406       .  A
C2891      H2898   1.083       .  S
C2892      C2893   1.426       .  A
C2893      C2894   1.402       .  A
C2893      N2900   1.433       .  S
C2894      C2895   1.403       .  A
C2894      H2899   1.084   1_565  S
C2895      C2896   1.411       .  A
C2896      N2897   1.432       .  S
N2897      H2901   1.046       .  S
N2897      H2902   1.046       .  S
N2900      H2903   1.045       .  S
N2900      H2904   1.045       .  S
C2905      C2910   1.390       .  A
C2905      H2912   1.084       .  S
C2906      C2907   1.415       .  A
C2907      C2908   1.389       .  A
C2907      N2914   1.433       .  S
C2908      H2913   1.084       .  S
C2909      C2910   1.403       .  A
C2910      N2911   1.433       .  S
N2911      H2915   1.046       .  S
N2911      H2916   1.046       .  S
N2914      H2917   1.046       .  S
N2914      H2918   1.045       .  S
C2919      C2920   1.414   1_554  A
C2919      C2924   1.408   1_554  A
C2919      H2926   1.083       .  S
C2920      C2921   1.416       .  A
C2921      C2922   1.412       .  A
C2921      N2928   1.437       .  S
C2922      C2923   1.408       .  A
C2922      H2927   1.084       .  S
C2923      C2924   1.407       .  A
C2924      N2925   1.433       .  S
N2925      H2929   1.046       .  S
N2925      H2930   1.046       .  S
N2928      H2931   1.046       .  S
N2928      H2932   1.045       .  S
C2933      C2934   1.408       .  A
C2933      C2938   1.392       .  A
C2933      H2940   1.083       .  S
C2934      C2935   1.413   1_556  A
C2935      C2936   1.394       .  A
C2935      N2942   1.438       .  S
C2936      C2937   1.398       .  A
C2936      H2941   1.084       .  S
C2937      C2938   1.399   1_554  A
C2938      N2939   1.437       .  S
N2939      H2943   1.046       .  S
N2939      H2944   1.046       .  S
N2942      H2945   1.046       .  S
N2942      H2946   1.046       .  S
C2947      C2948   1.408       .  A
C2947      C2952   1.408       .  A
C2947      H2954   1.084       .  S
C2948      C2949   1.409       .  A
C2949      C2950   1.408       .  A
C2949      N2956   1.439       .  S
C2950      C2951   1.405       .  A
C2950      H2955   1.084       .  S
C2951      C2952   1.405       .  A
C2952      N2953   1.435       .  S
N2953      H2957   1.046       .  S
N2953      H2958   1.045       .  S
N2956      H2959   1.046       .  S
N2956      H2960   1.046       .  S
C2961      C2962   1.398       .  A
C2961      C2966   1.404       .  A
C2961      H2968   1.083       .  S
C2962      C2963   1.418       .  A
C2963      C2964   1.405       .  A
C2963      N2970   1.430       .  S
C2964      C2965   1.401       .  A
C2964      H2969   1.084       .  S
C2965      C2966   1.420       .  A
C2966      N2967   1.436       .  S
N2967      H2971   1.045       .  S
N2967      H2972   1.045       .  S
N2970      H2973   1.046       .  S
N2970      H2974   1.041       .  S
C2975      C2976   1.405       .  A
C2975      C2980   1.408   1_554  A
C2975      H2982   1.083       .  S
C2976      C2977   1.420       .  A
C2977      C2978   1.419       .  A
C2977      N2984   1.437       .  S
C2978      C2979   1.409   1_554  A
C2978      H2983   1.083       .  S
C2979      C2980   1.420       .  A
C2980      N2981   1.438       .  S
N2981      H2985   1.046       .  S
N2981      H2986   1.046       .  S
N2984      H2987   1.045       .  S
N2984      H2988   1.046       .  S
C2989      C2990   1.404       .  A
C2989      C2994   1.415       .  A
C2989      H2996   1.084       .  S
C2990      C2991   1.420       .  A
C2991      C2992   1.400       .  A
C2991      N2998   1.434       .  S
C2992      C2993   1.406       .  A
C2992      H2997   1.083       .  S
C2993      C2994   1.422       .  A
C2994      N2995   1.438       .  S
N2995      H2999   1.046       .  S
N2995      H3000   1.044       .  S
N2998      H3001   1.046       .  S
N2998      H3002   1.043       .  S
C3003      C3004   1.400       .  A
C3003      C3008   1.395       .  A
C3003      H3010   1.085       .  S
C3004      C3005   1.402       .  A
C3005      C3006   1.384       .  A
C3005      N3012   1.434       .  S
C3006      C3007   1.405       .  A
C3006      H3011   1.085       .  S
C3007      C3008   1.405       .  A
C3008      N3009   1.433       .  S
N3009      H3013   1.046       .  S
N3009      H3014   1.045       .  S
N3012      H3015   1.046       .  S
N3012      H3016   1.045       .  S
C3017      C3018   1.406       .  A
C3017      C3022   1.406       .  A
C3017      H3024   1.082       .  S
C3018      C3019   1.409       .  A
C3019      C3020   1.411       .  A
C3019      N3026   1.438       .  S
C3020      C3021   1.406       .  A
C3020      H3025   1.084       .  S
C3021      C3022   1.405       .  A
C3022      N3023   1.437       .  S
N3023      H3027   1.045       .  S
N3023      H3028   1.045       .  S
N3026      H3029   1.046       .  S
N3026      H3030   1.046       .  S
C3031      C3032   1.401       .  A
C3031      C3036   1.403       .  A
C3031      H3038   1.084       .  S
C3032      C3033   1.420       .  A
C3033      C3034   1.405       .  A
C3033      N3040   1.439       .  S
C3034      C3035   1.401       .  A
C3034      H3039   1.084       .  S
C3035      C3036   1.409       .  A
C3036      N3037   1.432       .  S
N3037      H3041   1.046       .  S
N3037      H3042   1.045       .  S
N3040      H3043   1.043       .  S
N3040      H3044   1.046       .  S
C3045      C3046   1.411       .  A
C3045      C3050   1.407       .  A
C3045      H3052   1.084       .  S
C3046      C3047   1.406       .  A
C3047      C3048   1.409       .  A
C3047      N3054   1.432       .  S
C3048      C3049   1.407       .  A
C3048      H3053   1.084       .  S
C3049      C3050   1.405       .  A
C3050      N3051   1.437       .  S
N3051      H3055   1.045       .  S
N3051      H3056   1.046       .  S
N3054      H3057   1.046       .  S
N3054      H3058   1.046       .  S
C3059      C3060   1.409       .  A
C3059      C3064   1.408       .  A
C3059      H3066   1.083       .  S
C3060      C3061   1.415       .  A
C3061      C3062   1.411       .  A
C3061      N3068   1.432       .  S
C3062      C3063   1.410       .  A
C3062      H3067   1.083       .  S
C3063      C3064   1.415       .  A
C3064      N3065   1.433   1_655  S
N3065      H3069   1.046       .  S
N3065      H3070   1.045   1_455  S
N3068      H3071   1.046       .  S
N3068      H3072   1.046       .  S
