geometry optimzed in LAMMPS
_audit_creation_date              2020-12-01 
_audit_creation_method            'lammps2cif' 
_symmetry_space_group_name_H-M    'P1' 
_symmetry_Int_Tables_number       1 
_symmetry_cell_setting            triclinic 
loop_ 
_symmetry_equiv_pos_as_xyz 
  x,y,z 
_cell_length_a                    56.00439423 
_cell_length_b                    56.09103117133133 
_cell_length_c                    45.85743487513838 
_cell_angle_alpha                 89.84262584606473 
_cell_angle_beta                  90.27328593131351 
_cell_angle_gamma                 120.75465530615318 
loop_ 
_atom_site_label 
_atom_site_type_symbol 
_atom_site_fract_x 
_atom_site_fract_y 
_atom_site_fract_z 
_atom_site_charge 
Fe1        Fe  0.32138665  0.88551237  0.24692866     1.65800
Fe2        Fe  0.38425203  0.89932156  0.22351432     1.73200
Fe3        Fe  0.34927153  0.84858626  0.27223060     1.54400
O4          O  0.32725755  0.85490624  0.30468382    -0.81600
O5          O  0.38013424  0.86414949  0.20450541    -0.79900
O6          O  0.32397444  0.89120910  0.29107545    -0.84100
O7          O  0.29088367  0.84340867  0.25069448    -0.79000
O8          O  0.38548411  0.87652298  0.29322153    -0.80800
O9          O  0.36162219  0.90203108  0.18917204    -0.83500
C10         C  0.29079288  0.82063011  0.24887794     0.97300
C11         C  0.32373018  0.87504202  0.31049841     1.04700
O12         O  0.35159538  0.87779461  0.24742607    -1.12500
O13         O  0.39071152  0.93556154  0.24124436    -0.74900
O14         O  0.34794949  0.92867244  0.24318108    -0.78400
O15         O  0.31283683  0.81968858  0.25232669    -0.79100
C16         C  0.37425344  0.94445918  0.24513100     0.96200
O17         O  0.31718635  0.88019029  0.20280570    -0.77100
O18         O  0.41129329  0.89941864  0.25472887    -0.82300
C19         C  0.38073955  0.84466574  0.21795048     0.98800
C20         C  0.40889180  0.89219963  0.28136511     1.04700
O21         O  0.37187830  0.83810672  0.24397571    -0.77900
C22         C  0.33581865  0.89025984  0.18345093     1.03000
Fe23       Fe  0.31992271  0.88566814  0.49671730     1.65800
Fe24       Fe  0.38310545  0.90011073  0.47261816     1.73200
Fe25       Fe  0.35025531  0.84972743  0.02318311     1.54400
O26         O  0.32738410  0.85516293  0.05495036    -0.81600
O27         O  0.38023718  0.86534863  0.45371031    -0.79900
O28         O  0.32436280  0.89164795  0.04181626    -0.84100
O29         O  0.28936582  0.84337997  0.49973959    -0.79000
O30         O  0.38637662  0.87820466  0.04433873    -0.80800
O31         O  0.35976269  0.90166757  0.43806497    -0.83500
C32         C  0.28967272  0.82087577  0.49713982     0.97300
C33         C  0.32436281  0.87547324  0.06113399     1.04700
O34         O  0.35044669  0.87814358  0.49655323    -1.12500
O35         O  0.38878213  0.93632983  0.48997880    -0.74900
O36         O  0.34583421  0.92888492  0.49338040    -0.78400
O37         O  0.31435989  0.82061431  0.00258297    -0.79100
C38         C  0.37272217  0.94528397  0.99190645     0.96200
O39         O  0.31545176  0.88115464  0.45226714    -0.77100
O40         O  0.41204190  0.90282312  0.00634199    -0.82300
C41         C  0.38000239  0.84528429  0.46688361     0.98800
C42         C  0.40976778  0.89514227  0.03289888     1.04700
O43         O  0.37025809  0.83808902  0.49243229    -0.77900
C44         C  0.33392281  0.89067215  0.43263279     1.03000
Fe45       Fe  0.43440057  0.12126963  0.01312426     1.65800
Fe46       Fe  0.48593851  0.11031448  0.03502222     1.73200
Fe47       Fe  0.50036515  0.15917344  0.48564874     1.54400
O48         O  0.47066741  0.15241207  0.45453446    -0.81600
O49         O  0.51802749  0.14646516  0.05192718    -0.79900
O50         O  0.43149604  0.11550549  0.46905888    -0.84100
O51         O  0.44625298  0.16347496  0.01277305    -0.79000
O52         O  0.50730013  0.13057884  0.46500454    -0.80800
O53         O  0.46236427  0.10756624  0.07112100    -0.83500
C54         C  0.46935072  0.18659842  0.01292014     0.97300
C55         C  0.44682161  0.13179623  0.44917896     1.04700
O56         O  0.47314916  0.13046116  0.01142377    -1.12500
O57         O  0.45521665  0.07322261  0.01929501    -0.74900
O58         O  0.41849803  0.07828741  0.01342935    -0.78400
O59         O  0.49230789  0.18823980  0.00648332    -0.79100
C60         C  0.42987344  0.06355505  0.01295827     0.96200
O61         O  0.43468351  0.12342239  0.05790291    -0.77100
O62         O  0.51146084  0.10874557  0.50376376    -0.82300
C63         C  0.53799627  0.16539593  0.03741982     0.98800
C64         C  0.51473796  0.11471826  0.47669236     1.04700
O65         O  0.53455646  0.17150644  0.01170581    -0.77900
C66         C  0.44526949  0.11534734  0.07718247     1.03000
Fe67       Fe  0.43078873  0.11993501  0.26294875     1.65800
Fe68       Fe  0.48294369  0.11083849  0.28500553     1.73200
Fe69       Fe  0.49557563  0.16120016  0.23785307     1.54400
O70         O  0.46592795  0.15487656  0.20632208    -0.81600
O71         O  0.51212597  0.14686851  0.30502023    -0.79900
O72         O  0.42825321  0.11512451  0.21838277    -0.84100
O73         O  0.44107455  0.16163592  0.26069806    -0.79000
O74         O  0.50462170  0.13582027  0.21499856    -0.80800
O75         O  0.45647984  0.10428520  0.31988048    -0.83500
C76         C  0.46392623  0.18465713  0.26418176     0.97300
C77         C  0.44374682  0.13263496  0.19943412     1.04700
O78         O  0.46958491  0.13048926  0.26205156    -1.12500
O79         O  0.45448061  0.07420980  0.26630953    -0.74900
O80         O  0.41624780  0.07715860  0.26556994    -0.78400
O81         O  0.48736322  0.18697697  0.26035747    -0.79100
C82         C  0.42833385  0.06310665  0.26394406     0.96200
O83         O  0.43180600  0.12387281  0.30765741    -0.77100
O84         O  0.51182510  0.11543838  0.25301900    -0.82300
C85         C  0.53257929  0.16547351  0.29093686     0.98800
C86         C  0.51666369  0.12435897  0.22679002     1.04700
O87         O  0.52975621  0.17199684  0.26509720    -0.77900
C88         C  0.44124938  0.11420985  0.32656500     1.03000
Fe89       Fe  0.68707989  0.12484198  0.12047556     1.65800
Fe90       Fe  0.62207009  0.10917575  0.10381596     1.73200
Fe91       Fe  0.66375153  0.16585876  0.14410807     1.54400
O92         O  0.68775085  0.16058214  0.17579924    -0.81600
O93         O  0.62190753  0.14157309  0.08248206    -0.79900
O94         O  0.68562232  0.12084705  0.16485532    -0.84100
O95         O  0.71890374  0.16642079  0.12289471    -0.79000
O96         O  0.62986453  0.14274294  0.16991704    -0.80800
O97         O  0.64203927  0.10529384  0.06685298    -0.83500
C98         C  0.71987896  0.18926886  0.11822574     0.97300
C99         C  0.68730497  0.13845998  0.18331774     1.04700
O100        O  0.65741898  0.13335581  0.12255444    -1.12500
O101        O  0.61858109  0.07453466  0.12374698    -0.74900
O102        O  0.66091652  0.08158643  0.11791239    -0.78400
O103        O  0.69822333  0.19105397  0.11954421    -0.79100
C104        C  0.63543039  0.06577451  0.12421757     0.96200
O105        O  0.68784500  0.12873105  0.07602223    -0.77100
O106        O  0.59888866  0.11168054  0.13866003    -0.82300
C107        C  0.62549393  0.16410245  0.09290330     0.98800
C108        C  0.60510228  0.12485117  0.16287826     1.04700
O109        O  0.63941705  0.17479104  0.11619866    -0.77900
C110        C  0.66739641  0.11781249  0.05841959     1.03000
Fe111      Fe  0.68091793  0.11838139  0.36979042     1.65800
Fe112      Fe  0.61724710  0.10309189  0.34538108     1.73200
Fe113      Fe  0.65305142  0.15612920  0.39247966     1.54400
O114        O  0.67376286  0.14971353  0.42618894    -0.81600
O115        O  0.61747034  0.13671055  0.32703921    -0.79900
O116        O  0.67685906  0.11290616  0.41480673    -0.84100
O117        O  0.71163030  0.16042579  0.37297153    -0.79000
O118        O  0.61636912  0.12969389  0.41327154    -0.80800
O119        O  0.64055049  0.10367606  0.31035695    -0.83500
C120        C  0.71180387  0.18312789  0.37026437     0.97300
C121        C  0.67557547  0.12886808  0.43355319     1.04700
O122        O  0.65031245  0.12585557  0.36893120    -1.12500
O123        O  0.61307001  0.06692708  0.36081463    -0.74900
O124        O  0.65607713  0.07545688  0.36621838    -0.78400
O125        O  0.68986670  0.18429335  0.37299366    -0.79100
C126        C  0.63008556  0.05870044  0.36494202     0.96200
O127        O  0.68486161  0.12278733  0.32488754    -0.77100
O128        O  0.59025070  0.10040795  0.37793633    -0.82300
C129        C  0.62016056  0.15838621  0.33874142     0.98800
C130        C  0.59311869  0.11080567  0.40325741     1.04700
O131        O  0.63191856  0.16716042  0.36328194    -0.77900
C132        C  0.66629548  0.11434289  0.30501532     1.03000
Fe133      Fe  0.57295251  0.88809145  0.13802204     1.65800
Fe134      Fe  0.52263208  0.89983952  0.16326138     1.73200
Fe135      Fe  0.50640138  0.84921375  0.11363354     1.54400
O136        O  0.53429204  0.85668232  0.08059115    -0.81600
O137        O  0.48791873  0.86495137  0.17897436    -0.79900
O138        O  0.57511667  0.89282830  0.09338694    -0.84100
O139        O  0.56144482  0.84628065  0.13519860    -0.79000
O140        O  0.49643961  0.87607602  0.09355199    -0.80800
O141        O  0.54419536  0.89743301  0.19875703    -0.83500
C142        C  0.53863950  0.82311577  0.13659507     0.97300
C143        C  0.55836159  0.87647878  0.07429974     1.04700
O144        O  0.53400124  0.87915737  0.13846460    -1.12500
O145        O  0.55554857  0.93744958  0.15086419    -0.74900
O146        O  0.59063217  0.93124113  0.14040017    -0.78400
O147        O  0.51513608  0.82112405  0.13280693    -0.79100
C148        C  0.58076225  0.94697864  0.14413370     0.96200
O149        O  0.57325682  0.88399373  0.18284546    -0.77100
O150        O  0.49940253  0.90384284  0.13013825    -0.82300
C151        C  0.46881323  0.84398356  0.16582345     0.98800
C152        C  0.49204832  0.89441034  0.10434778     1.04700
O153        O  0.47258418  0.83636706  0.14116913    -0.77900
C154        C  0.56131689  0.88927075  0.20318528     1.03000
Fe155      Fe  0.56949804  0.88375863  0.38915878     1.65800
Fe156      Fe  0.51812119  0.89461202  0.41082214     1.73200
Fe157      Fe  0.50444295  0.84408032  0.36313352     1.54400
O158        O  0.53380724  0.84973457  0.33208890    -0.81600
O159        O  0.48627637  0.85889696  0.42893267    -0.79900
O160        O  0.57260550  0.88805906  0.34461592    -0.84100
O161        O  0.55801373  0.84163953  0.38780673    -0.79000
O162        O  0.49739726  0.87153072  0.34043992    -0.80800
O163        O  0.54233387  0.89817297  0.44640469    -0.83500
C164        C  0.53510744  0.81838255  0.38961851     0.97300
C165        C  0.55686198  0.87102159  0.32546986     1.04700
O166        O  0.53078640  0.87410878  0.38811203    -1.12500
O167        O  0.54825734  0.93123872  0.39406925    -0.74900
O168        O  0.58531334  0.92668708  0.39020268    -0.78400
O169        O  0.51163275  0.81632729  0.38527722    -0.79100
C170        C  0.57366760  0.94111103  0.38846853     0.96200
O171        O  0.56898729  0.88091865  0.43380273    -0.77100
O172        O  0.49270067  0.89419679  0.37761874    -0.82300
C173        C  0.46617072  0.84013482  0.41439346     0.98800
C174        C  0.48988144  0.88765426  0.35075053     1.04700
O175        O  0.46962832  0.83358154  0.38892292    -0.77900
C176        C  0.55872322  0.88955890  0.45270297     1.03000
Fe177      Fe  0.68812880  0.57320452  0.17729317     1.65800
Fe178      Fe  0.62440403  0.52446281  0.19989408     1.73200
Fe179      Fe  0.65988071  0.50731923  0.15460126     1.54400
O180        O  0.68381091  0.53585374  0.12239366    -0.81600
O181        O  0.62605259  0.49280499  0.22029151    -0.79900
O182        O  0.68403145  0.57462294  0.13290120    -0.84100
O183        O  0.71803023  0.56117565  0.17348087    -0.79000
O184        O  0.62515055  0.49900977  0.13135732    -0.80800
O185        O  0.64762659  0.54976794  0.23468415    -0.83500
C186        C  0.71737275  0.53837945  0.17829537     0.97300
C187        C  0.68469634  0.55808431  0.11462178     1.04700
O188        O  0.65741334  0.53494050  0.17754425    -1.12500
O189        O  0.61983583  0.55484990  0.18105791    -0.74900
O190        O  0.66296693  0.59098437  0.18112332    -0.78400
O191        O  0.69489650  0.51506106  0.17714561    -0.79100
C192        C  0.63684955  0.58053239  0.17812209     0.96200
O193        O  0.69233766  0.57230191  0.22167974    -0.77100
O194        O  0.59780676  0.49770552  0.16733465    -0.82300
C195        C  0.62492131  0.47213697  0.20789500     0.98800
C196        C  0.60135434  0.49225239  0.14123687     1.04700
O197        O  0.63514445  0.47410858  0.18264710    -0.77900
C198        C  0.67351290  0.56327667  0.24097724     1.03000
Fe199      Fe  0.69266825  0.57303583  0.42733344     1.65800
Fe200      Fe  0.62848616  0.52251382  0.44468263     1.73200
Fe201      Fe  0.66782641  0.50878222  0.40128034     1.54400
O202        O  0.69265400  0.53910779  0.37084831    -0.81600
O203        O  0.63169398  0.49188942  0.46571554    -0.79900
O204        O  0.69067929  0.57640359  0.38283189    -0.84100
O205        O  0.72373456  0.56237336  0.42486531    -0.79000
O206        O  0.63427043  0.49969323  0.37609172    -0.80800
O207        O  0.64832634  0.54800261  0.48063529    -0.83500
C208        C  0.72327025  0.53958628  0.42917994     0.97300
C209        C  0.69169446  0.56057350  0.36382075     1.04700
O210        O  0.66287826  0.53471887  0.42454166    -1.12500
O211        O  0.62361130  0.55244969  0.42466713    -0.74900
O212        O  0.66597404  0.58920859  0.43050952    -0.78400
O213        O  0.70126511  0.51632953  0.42589704    -0.79100
C214        C  0.64016544  0.57849472  0.42473538     0.96200
O215        O  0.69387943  0.56946568  0.47184372    -0.77100
O216        O  0.60466281  0.49483919  0.41121303    -0.82300
C217        C  0.63113317  0.47184275  0.45246936     0.98800
C218        C  0.60984924  0.48941111  0.38578764     1.04700
O219        O  0.64243576  0.47475345  0.42769123    -0.77900
C220        C  0.67352988  0.56037563  0.48933292     1.03000
Fe221      Fe  0.43780803  0.32051939  0.03569113     1.65800
Fe222      Fe  0.48574357  0.38348452  0.01028594     1.73200
Fe223      Fe  0.50464162  0.35017381  0.05748175     1.54400
O224        O  0.47794328  0.32884251  0.09217216    -0.81600
O225        O  0.51544563  0.37946764  0.98899913    -0.79900
O226        O  0.43698413  0.32372164  0.08027924    -0.84100
O227        O  0.44999707  0.29067562  0.03841057    -0.79000
O228        O  0.51398762  0.38645822  0.07796575    -0.80800
O229        O  0.45881498  0.36162509  0.47837848    -0.83500
C230        C  0.47298155  0.29112376  0.03592647     0.97300
C231        C  0.45414677  0.32477832  0.09909554     1.04700
O232        O  0.47602861  0.35126956  0.03436260    -1.12500
O233        O  0.45692452  0.38936310  0.03037227    -0.74900
O234        O  0.42066895  0.34641211  0.03345983    -0.78400
O235        O  0.49629460  0.31350876  0.03832833    -0.79100
C236        C  0.43148032  0.37268160  0.03534739     0.96200
O237        O  0.43707612  0.31700298  0.49099500    -0.77100
O238        O  0.51503002  0.41168800  0.03989868    -0.82300
C239        C  0.53676661  0.38124286  0.00077534     0.98800
C240        C  0.52091384  0.40963966  0.06628234     1.04700
O241        O  0.53611669  0.37260168  0.02670121    -0.77900
C242        C  0.44468238  0.33599553  0.47199255     1.03000
Fe243      Fe  0.43286844  0.31741886  0.28601744     1.65800
Fe244      Fe  0.48347183  0.38021880  0.26376112     1.73200
Fe245      Fe  0.49799823  0.34364830  0.31063191     1.54400
O246        O  0.46875069  0.32081114  0.34274277    -0.81600
O247        O  0.51381937  0.37589942  0.24372648    -0.79900
O248        O  0.43049799  0.32131387  0.33040985    -0.84100
O249        O  0.44278348  0.28666789  0.29152487    -0.79000
O250        O  0.50794870  0.37914289  0.33284451    -0.80800
O251        O  0.45727519  0.35768785  0.22926546    -0.83500
C252        C  0.46504960  0.28628576  0.28768990     0.97300
C253        C  0.44626375  0.31987810  0.34946491     1.04700
O254        O  0.47147447  0.34723945  0.28682375    -1.12500
O255        O  0.45395545  0.38641281  0.28235523    -0.74900
O256        O  0.41696525  0.34386422  0.28053364    -0.78400
O257        O  0.48884287  0.30817524  0.28898089    -0.79100
C258        C  0.42794498  0.36991663  0.28413128     0.96200
O259        O  0.43526086  0.31292510  0.24165049    -0.77100
O260        O  0.51201205  0.40664048  0.29554036    -0.82300
C261        C  0.53424053  0.37736442  0.25730548     0.98800
C262        C  0.51802951  0.40302968  0.32145541     1.04700
O263        O  0.53163420  0.36722163  0.28276887    -0.77900
C264        C  0.44464707  0.33200434  0.22256772     1.03000
Fe265      Fe  0.57079774  0.68909526  0.15705653     1.65800
Fe266      Fe  0.51990527  0.62550835  0.13585357     1.73200
Fe267      Fe  0.50595108  0.66237438  0.18321549     1.54400
O268        O  0.53545582  0.68459626  0.21496675    -0.81600
O269        O  0.48910015  0.62980366  0.11653138    -0.79900
O270        O  0.57476953  0.68718942  0.20139903    -0.84100
O271        O  0.56016483  0.72006843  0.16068069    -0.79000
O272        O  0.49649191  0.62677695  0.20512962    -0.80800
O273        O  0.54535899  0.64691507  0.10084459    -0.83500
C274        C  0.53746173  0.72035314  0.16000912     0.97300
C275        C  0.55899349  0.68748877  0.22089370     1.04700
O276        O  0.53225176  0.65899007  0.15860681    -1.12500
O277        O  0.55001121  0.61926883  0.15322084    -0.74900
O278        O  0.58659692  0.66232972  0.15333757    -0.78400
O279        O  0.51400437  0.69837632  0.16305289    -0.79100
C280        C  0.57600472  0.63608426  0.15468067     0.96200
O281        O  0.56859090  0.69186477  0.11253373    -0.77100
O282        O  0.49216044  0.59936695  0.16787844    -0.82300
C283        C  0.46928743  0.62980893  0.12975831     0.98800
C284        C  0.48661900  0.60294975  0.19384863     1.04700
O285        O  0.47208615  0.63957041  0.15537927    -0.77900
C286        C  0.55991715  0.67241635  0.09396308     1.03000
Fe287      Fe  0.57209879  0.68673045  0.40705881     1.65800
Fe288      Fe  0.52396365  0.62345168  0.38070546     1.73200
Fe289      Fe  0.50509282  0.65715478  0.42762267     1.54400
O290        O  0.53177958  0.67880965  0.46204234    -0.81600
O291        O  0.49187059  0.62491525  0.36059862    -0.79900
O292        O  0.57265703  0.68324302  0.45166839    -0.84100
O293        O  0.56014914  0.71657004  0.41007415    -0.79000
O294        O  0.49515545  0.62061634  0.44834955    -0.80800
O295        O  0.54925848  0.64763864  0.34699257    -0.83500
C296        C  0.53738559  0.71639277  0.40715207     0.97300
C297        C  0.55548833  0.68310153  0.46972801     1.04700
O298        O  0.53374955  0.65568399  0.40505100    -1.12500
O299        O  0.55502319  0.61855357  0.39769784    -0.74900
O300        O  0.59006893  0.66176382  0.40409314    -0.78400
O301        O  0.51393190  0.69396026  0.40817869    -0.79100
C302        C  0.58054906  0.63575628  0.40214076     0.96200
O303        O  0.57288385  0.69160555  0.36268799    -0.77100
O304        O  0.49708001  0.59536444  0.41178559    -0.82300
C305        C  0.47128665  0.62454148  0.37234281     0.98800
C306        C  0.48981525  0.59754340  0.43747549     1.04700
O307        O  0.47304864  0.63475223  0.39753951    -0.77900
C308        C  0.56393550  0.67361524  0.34252169     1.03000
Fe309      Fe  0.31903855  0.43654831  0.04866657     1.65800
Fe310      Fe  0.38214323  0.48658693  0.07355701     1.73200
Fe311      Fe  0.34744022  0.50256511  0.02479449     1.54400
O312        O  0.32459370  0.47127388  0.48821271    -0.81600
O313        O  0.38016470  0.51921404  0.09127827    -0.79900
O314        O  0.32126356  0.43505644  0.00390248    -0.84100
O315        O  0.28931284  0.44874905  0.04707575    -0.79000
O316        O  0.38302024  0.51056417  0.00330835    -0.80800
O317        O  0.35918604  0.46282502  0.10865520    -0.83500
C318        C  0.29006169  0.47176409  0.05033056     0.97300
C319        C  0.32098263  0.44745704  0.48313420     1.04700
O320        O  0.34955989  0.47511483  0.04924925    -1.12500
O321        O  0.38713056  0.45525872  0.05847181    -0.74900
O322        O  0.34465008  0.41933471  0.05069044    -0.78400
O323        O  0.31204851  0.49511466  0.04619618    -0.79100
C324        C  0.37079368  0.42973978  0.05310844     0.96200
O325        O  0.31537924  0.43563123  0.09339755    -0.77100
O326        O  0.40913315  0.51175267  0.04097891    -0.82300
C327        C  0.38074627  0.53913907  0.07758760     0.98800
C328        C  0.40640564  0.51683404  0.01446346     1.04700
O329        O  0.37129022  0.53628783  0.05188933    -0.77900
C330        C  0.33358350  0.44598567  0.11347302     1.03000
Fe331      Fe  0.31342852  0.43085530  0.29795583     1.65800
Fe332      Fe  0.37742996  0.48240749  0.31758493     1.73200
Fe333      Fe  0.33737583  0.49601728  0.27438652     1.54400
O334        O  0.31279702  0.46663123  0.24305946    -0.81600
O335        O  0.37472044  0.51344311  0.33853323    -0.79900
O336        O  0.31491810  0.42908212  0.25341357    -0.84100
O337        O  0.28172441  0.44049745  0.29662687    -0.79000
O338        O  0.37153738  0.50657828  0.24947645    -0.80800
O339        O  0.35746090  0.45678811  0.35333131    -0.83500
C340        C  0.28126373  0.46279876  0.30050555     0.97300
C341        C  0.31297582  0.44502133  0.23516873     1.04700
O342        O  0.34285425  0.46977346  0.29686725    -1.12500
O343        O  0.38289877  0.45265530  0.29845232    -0.74900
O344        O  0.34044621  0.41536262  0.29971876    -0.78400
O345        O  0.30309802  0.48657141  0.29860872    -0.79100
C346        C  0.36665886  0.42657438  0.29743871     0.96200
O347        O  0.31209223  0.43184915  0.34259017    -0.77100
O348        O  0.40130496  0.50996427  0.28413146    -0.82300
C349        C  0.37499534  0.53343992  0.32533462     0.98800
C350        C  0.39609858  0.51608453  0.25895183     1.04700
O351        O  0.36255895  0.53008195  0.30108976    -0.77900
C352        C  0.33208967  0.44144050  0.36075992     1.03000
Fe353      Fe  0.12333447  0.43743720  0.07660036     1.65800
Fe354      Fe  0.11222034  0.48893548  0.05623524     1.73200
Fe355      Fe  0.16326070  0.50197244  0.10428662     1.54400
O356        O  0.15581085  0.47211553  0.13565654    -0.81600
O357        O  0.14804164  0.52078542  0.03875410    -0.79900
O358        O  0.11794957  0.43345242  0.12122682    -0.84100
O359        O  0.16495178  0.44787945  0.07910074    -0.79000
O360        O  0.13744136  0.51126283  0.12699194    -0.80800
O361        O  0.10909402  0.46532498  0.01954388    -0.83500
C362        C  0.18822801  0.47059160  0.07770916     0.97300
C363        C  0.13423846  0.44889819  0.14119140     1.04700
O364        O  0.13282503  0.47605437  0.07890306    -1.12500
O365        O  0.07477395  0.45799279  0.07130236    -0.74900
O366        O  0.08070365  0.42166479  0.07333002    -0.78400
O367        O  0.19051405  0.49393969  0.08282867    -0.79100
C368        C  0.06524110  0.43215237  0.07352305     0.96200
O369        O  0.12738955  0.43938994  0.03180449    -0.77100
O370        O  0.11285246  0.51436552  0.09036862    -0.82300
C371        C  0.16856058  0.54008732  0.05228977     0.98800
C372        C  0.12148466  0.51916414  0.11680416     1.04700
O373        O  0.17539764  0.53667587  0.07773341    -0.77900
C374        C  0.11834370  0.44947387  0.01289140     1.03000
Fe375      Fe  0.11455933  0.42920373  0.32719213     1.65800
Fe376      Fe  0.10320608  0.47938220  0.30427457     1.73200
Fe377      Fe  0.15572881  0.49507268  0.35008146     1.54400
O378        O  0.15159071  0.46625429  0.38128976    -0.81600
O379        O  0.13931922  0.50830317  0.28480551    -0.79900
O380        O  0.11128442  0.42806222  0.37198162    -0.84100
O381        O  0.15678323  0.44065591  0.32849041    -0.79000
O382        O  0.13004875  0.50349288  0.37419941    -0.80800
O383        O  0.09794468  0.45374897  0.26919224    -0.83500
C384        C  0.17958335  0.46342465  0.32371195     0.97300
C385        C  0.12985626  0.44440597  0.38977524     1.04700
O386        O  0.12398386  0.46756512  0.32742961    -1.12500
O387        O  0.06630777  0.45021959  0.32189427    -0.74900
O388        O  0.07126576  0.41331420  0.32563823    -0.78400
O389        O  0.18152343  0.48692396  0.32624732    -0.79100
C390        C  0.05621852  0.42441660  0.32574738     0.96200
O391        O  0.11764711  0.42942058  0.28229544    -0.77100
O392        O  0.10599830  0.50690276  0.33704047    -0.82300
C393        C  0.15607667  0.53025715  0.29808812     0.98800
C394        C  0.11456551  0.51180584  0.36348043     1.04700
O395        O  0.16462152  0.52927583  0.32347926    -0.77900
C396        C  0.10862157  0.43914493  0.26295368     1.03000
Fe397      Fe  0.12057321  0.68867210  0.21935645     1.65800
Fe398      Fe  0.10487059  0.62580182  0.24250026     1.73200
Fe399      Fe  0.15973352  0.66178663  0.19955414     1.54400
O400        O  0.15684195  0.68608551  0.16670083    -0.81600
O401        O  0.13887395  0.63193855  0.26511655    -0.79900
O402        O  0.11735835  0.68533458  0.17439076    -0.84100
O403        O  0.16324798  0.71927010  0.21812162    -0.79000
O404        O  0.13436557  0.62733463  0.17495821    -0.80800
O405        O  0.09865818  0.64716319  0.27603947    -0.83500
C406        C  0.18537549  0.71887585  0.22423924     0.97300
C407        C  0.13533943  0.68589940  0.15714267     1.04700
O408        O  0.12805901  0.65861737  0.22023589    -1.12500
O409        O  0.07026752  0.61933734  0.22118557    -0.74900
O410        O  0.07700485  0.66199623  0.22092572    -0.78400
O411        O  0.18592082  0.69647533  0.22345892    -0.79100
C412        C  0.06125065  0.63575933  0.21803447     0.96200
O413        O  0.12359325  0.69196357  0.26425935    -0.77100
O414        O  0.10843879  0.60007043  0.21131654    -0.82300
C415        C  0.15543210  0.62601323  0.25341091     0.98800
C416        C  0.11832298  0.60343147  0.18554615     1.04700
O417        O  0.16591704  0.63591076  0.22854313    -0.77900
C418        C  0.11178048  0.67272401  0.28306791     1.03000
Fe419      Fe  0.12490377  0.68427856  0.46995587     1.65800
Fe420      Fe  0.11365307  0.62207479  0.49287498     1.73200
Fe421      Fe  0.16238776  0.65807252  0.44228097     1.54400
O422        O  0.15464772  0.68018838  0.41084671    -0.81600
O423        O  0.15025046  0.62582762  0.00818669    -0.79900
O424        O  0.11742777  0.68110657  0.42563530    -0.84100
O425        O  0.16666373  0.71536703  0.46490753    -0.79000
O426        O  0.13441954  0.62195151  0.42130033    -0.80800
O427        O  0.11256681  0.64321464  0.02634928    -0.83500
C428        C  0.18975002  0.71597011  0.46655078     0.97300
C429        C  0.13359402  0.68244994  0.40559892     1.04700
O430        O  0.13349956  0.65472272  0.46849905    -1.12500
O431        O  0.07574296  0.61498615  0.47923777    -0.74900
O432        O  0.08211847  0.65735966  0.47572476    -0.78400
O433        O  0.19123825  0.69434716  0.46246050    -0.79100
C434        C  0.06623289  0.63109132  0.47677587     0.96200
O435        O  0.13229544  0.68784382  0.01371327    -0.77100
O436        O  0.11167981  0.59549171  0.45962953    -0.82300
C437        C  0.16900481  0.62621505  0.49452697     0.98800
C438        C  0.11856033  0.59833721  0.43274753     1.04700
O439        O  0.17463608  0.63552626  0.46861913    -0.77900
C440        C  0.12320189  0.66877150  0.03283140     1.03000
Fe441      Fe  0.88317428  0.57345692  0.20771722     1.65800
Fe442      Fe  0.89476292  0.52404882  0.18418470     1.73200
Fe443      Fe  0.84393674  0.50727028  0.23176637     1.54400
O444        O  0.84920705  0.53598143  0.26370893    -0.81600
O445        O  0.85820311  0.49548381  0.16516915    -0.79900
O446        O  0.88823599  0.57486673  0.25229082    -0.84100
O447        O  0.84104597  0.56133268  0.21069773    -0.79000
O448        O  0.87115098  0.49964664  0.25444609    -0.80800
O449        O  0.89944198  0.55025491  0.15010750    -0.83500
C450        C  0.81813478  0.53832317  0.20762508     0.97300
C451        C  0.87103854  0.55844425  0.27102256     1.04700
O452        O  0.87431261  0.53525481  0.20810802    -1.12500
O453        O  0.93147938  0.55304834  0.20194323    -0.74900
O454        O  0.92649166  0.58995185  0.20421916    -0.78400
O455        O  0.81638983  0.51484043  0.20998475    -0.79100
C456        C  0.94167148  0.57899304  0.20437802     0.96200
O457        O  0.87859696  0.57341691  0.16287378    -0.77100
O458        O  0.89317679  0.49618046  0.21580718    -0.82300
C459        C  0.84322150  0.47300790  0.17840415     0.98800
C460        C  0.88602846  0.49132930  0.24253692     1.04700
O461        O  0.83499143  0.47322032  0.20418525    -0.77900
C462        C  0.88885374  0.56493955  0.14374454     1.03000
Fe463      Fe  0.89010660  0.57307541  0.45696255     1.65800
Fe464      Fe  0.90023591  0.52111931  0.43523945     1.73200
Fe465      Fe  0.84926728  0.50789959  0.48234058     1.54400
O466        O  0.85752737  0.53978526  0.01350471    -0.81600
O467        O  0.86456311  0.48869331  0.41735644    -0.79900
O468        O  0.89751508  0.57705648  0.00122838    -0.84100
O469        O  0.84833545  0.56240976  0.45820066    -0.79000
O470        O  0.87563285  0.50006006  0.00691863    -0.80800
O471        O  0.90261550  0.54455461  0.39885144    -0.83500
C472        C  0.82504596  0.53976926  0.45569571     0.97300
C473        C  0.87961820  0.56215791  0.02018150     1.04700
O474        O  0.87997911  0.53411493  0.45792385    -1.12500
O475        O  0.93735561  0.55185049  0.45121129    -0.74900
O476        O  0.93305663  0.58894093  0.45576424    -0.78400
O477        O  0.82264484  0.51616768  0.45971773    -0.79100
C478        C  0.94757226  0.57740176  0.45659420     0.96200
O479        O  0.88688736  0.57236809  0.41227488    -0.77100
O480        O  0.89996180  0.49604639  0.46936954    -0.82300
C481        C  0.84465077  0.46918913  0.43129771     0.98800
C482        C  0.89153684  0.49162884  0.49577394     1.04700
O483        O  0.83783883  0.47299798  0.45644796    -0.77900
C484        C  0.89399936  0.56108907  0.39293013     1.03000
Fe485      Fe  0.88897779  0.32062960  0.09799364     1.65800
Fe486      Fe  0.90633369  0.38376222  0.12200230     1.73200
Fe487      Fe  0.85252748  0.35005321  0.07648931     1.54400
O488        O  0.85625363  0.32681553  0.04320914    -0.81600
O489        O  0.87282699  0.37967250  0.14383689    -0.79900
O490        O  0.89395491  0.32450772  0.05327694    -0.84100
O491        O  0.84642328  0.29125481  0.09394914    -0.79000
O492        O  0.87975376  0.38512338  0.05399807    -0.80800
O493        O  0.91077617  0.36084424  0.15524989    -0.83500
C494        C  0.82416493  0.29192051  0.09762821     0.97300
C495        C  0.87679184  0.32459846  0.03511650     1.04700
O496        O  0.88267150  0.35149989  0.09880217    -1.12500
O497        O  0.94042279  0.38897247  0.10094893    -0.74900
O498        O  0.93246491  0.34580962  0.10182083    -0.78400
O499        O  0.82414179  0.31455557  0.09765033    -0.79100
C500        C  0.94853792  0.37181332  0.09798900     0.96200
O501        O  0.88376289  0.31652826  0.14254361    -0.77100
O502        O  0.90459440  0.41091952  0.09176437    -0.82300
C503        C  0.85541240  0.38435255  0.13154215     0.98800
C504        C  0.89557531  0.40849563  0.06572873     1.04700
O505        O  0.84578467  0.37483670  0.10619749    -0.77900
C506        C  0.89558036  0.33530602  0.16180490     1.03000
Fe507      Fe  0.87857675  0.31828080  0.34731190     1.65800
Fe508      Fe  0.89425459  0.38210644  0.36819614     1.73200
Fe509      Fe  0.84064575  0.34528137  0.32228760     1.54400
O510        O  0.84638718  0.32279892  0.28955036    -0.81600
O511        O  0.86027727  0.37950222  0.38828530    -0.79900
O512        O  0.88350460  0.32064822  0.30283936    -0.84100
O513        O  0.83642582  0.28770606  0.34421722    -0.79000
O514        O  0.86703160  0.38071305  0.29964789    -0.80800
O515        O  0.89776847  0.36053770  0.40367230    -0.83500
C516        C  0.81376091  0.28767807  0.34707618     0.97300
C517        C  0.86739652  0.32072308  0.28334686     1.04700
O518        O  0.87107652  0.34856216  0.34611496    -1.12500
O519        O  0.92957127  0.38714770  0.34908663    -0.74900
O520        O  0.92188933  0.34417591  0.35036040    -0.78400
O521        O  0.81260596  0.30955217  0.34379329    -0.79100
C522        C  0.93792648  0.37012387  0.34639006     0.96200
O523        O  0.87424691  0.31554531  0.39200055    -0.77100
O524        O  0.89348140  0.40801883  0.33579845    -0.82300
C525        C  0.83982510  0.37920481  0.37588833     0.98800
C526        C  0.88412637  0.40454243  0.30978706     1.04700
O527        O  0.83127197  0.36860482  0.35071734    -0.77900
C528        C  0.88542355  0.33495647  0.41067269     1.03000
C529        C  0.85444424  0.31030442  0.48541477    -0.12200
C530        C  0.87823400  0.32152411  0.50324306     0.04800
C531        C  0.90465360  0.33419308  0.48981111    -0.07500
C532        C  0.90678009  0.33770447  0.45938186    -0.08300
C533        C  0.88292653  0.32777544  0.44193232    -0.02800
C534        C  0.85659432  0.31313392  0.45507691     0.04000
N535        N  0.83189136  0.30375560  0.43818102     0.66500
H536        H  0.83397582  0.30042508  0.49516491     0.15400
H537        H  0.92714586  0.34878479  0.44941161     0.15100
N538        N  0.93188599  0.35073113  0.00730852     0.74200
O539        O  0.81732894  0.27848250  0.43129269    -0.39200
O540        O  0.82224770  0.31955691  0.43464168    -0.39200
O541        O  0.94461559  0.33790864  0.01188514    -0.39900
O542        O  0.94385389  0.37631909  0.01276344    -0.39900
C543        C  0.86171840  0.31059911  0.20113612    -0.12200
C544        C  0.88957533  0.32770644  0.19287119     0.04800
C545        C  0.91015003  0.34014463  0.21467627    -0.07500
C546        C  0.90251365  0.33603620  0.24411635    -0.08300
C547        C  0.87446099  0.32029704  0.25236795    -0.02800
C548        C  0.85398363  0.30712808  0.23054687     0.04000
N549        N  0.82523864  0.29051710  0.23781872     0.66500
H550        H  0.84562973  0.30110889  0.18459707     0.15400
H551        H  0.91854423  0.34637536  0.26056708     0.15100
N552        N  0.93883809  0.35706653  0.20728718     0.74200
O553        O  0.80951217  0.30028730  0.23440850    -0.39200
O554        O  0.81469622  0.26477354  0.24162403    -0.39200
O555        O  0.95043414  0.38312520  0.20880583    -0.39900
O556        O  0.95362087  0.34611031  0.20546116    -0.39900
C557        C  0.90657545  0.45703405  0.50215394    -0.12200
C558        C  0.89804059  0.47458749  0.01664565     0.04800
C559        C  0.89155362  0.47134121  0.04679524    -0.07500
C560        C  0.89306081  0.45094917  0.06288585    -0.08300
C561        C  0.90079897  0.43345491  0.04971927    -0.02800
C562        C  0.90890308  0.43763670  0.02031211     0.04000
N563        N  0.91217665  0.41658273  0.50408338     0.66500
H564        H  0.91050199  0.45806733  0.47893654     0.15400
H565        H  0.88617675  0.44750036  0.08534550     0.15100
N566        N  0.88217169  0.48758320  0.06129314     0.74200
O567        O  0.89511044  0.39960253  0.48575240    -0.39200
O568        O  0.93348443  0.41557429  0.51091865    -0.39200
O569        O  0.85649141  0.47742118  0.06543412    -0.39900
O570        O  0.89931625  0.50851877  0.07584811    -0.39900
C571        C  0.82694475  0.43746855  0.38849378    -0.12200
C572        C  0.83131414  0.44084909  0.41873019     0.04800
C573        C  0.82933496  0.41856580  0.43520122    -0.07500
C574        C  0.82889440  0.39629950  0.42084008    -0.08300
C575        C  0.82828499  0.39479248  0.39029163    -0.02800
C576        C  0.82417388  0.41400623  0.37437205     0.04000
N577        N  0.81965873  0.41133331  0.34358288     0.66500
H578        H  0.82730733  0.45385869  0.37557034     0.15400
H579        H  0.83099511  0.38114346  0.43355562     0.15100
N580        N  0.83069771  0.41951748  0.46631881     0.74200
O581        O  0.79514636  0.39733188  0.33390059    -0.39200
O582        O  0.83893273  0.42730394  0.32660874    -0.39200
O583        O  0.80870290  0.41172180  0.48058299    -0.39900
O584        O  0.85131913  0.42077958  0.47900367    -0.39900
C585        C  0.90493517  0.57434294  0.31172300    -0.12200
C586        C  0.87750064  0.56443685  0.30234343     0.04800
C587        C  0.85645911  0.55671018  0.32334950    -0.07500
C588        C  0.86285935  0.55766313  0.35300144    -0.08300
C589        C  0.88980026  0.56543833  0.36214502    -0.02800
C590        C  0.91112694  0.57446478  0.34137130     0.04000
N591        N  0.93900219  0.58336126  0.35000283     0.66500
H592        H  0.92133677  0.58024818  0.29587951     0.15400
H593        H  0.84633011  0.55078581  0.36888579     0.15100
N594        N  0.82835987  0.54701838  0.31492582     0.74200
O595        O  0.94699315  0.56603124  0.35095601    -0.39200
O596        O  0.95677017  0.60895445  0.35098697    -0.39200
O597        O  0.81060523  0.52145068  0.31649250    -0.39900
O598        O  0.82027904  0.56417156  0.31205288    -0.39900
C599        C  0.91141738  0.57759689  0.09545466    -0.12200
C600        C  0.88821724  0.57127540  0.11260753     0.04800
C601        C  0.86362632  0.56665158  0.09885894    -0.07500
C602        C  0.86192447  0.56596378  0.06835205    -0.08300
C603        C  0.88441610  0.56996099  0.05125023    -0.02800
C604        C  0.90975915  0.57698992  0.06499837     0.04000
N605        N  0.93305250  0.58061082  0.04862978     0.66500
H606        H  0.93043627  0.58118887  0.10578084     0.15400
H607        H  0.84234180  0.56054869  0.05800762     0.15100
N608        N  0.83931979  0.55970847  0.11534521     0.74200
O609        O  0.95527421  0.60387176  0.04888955    -0.39200
O610        O  0.93350583  0.55957473  0.03973482    -0.39200
O611        O  0.83061748  0.57647229  0.11606527    -0.39900
O612        O  0.82354333  0.53497290  0.12351842    -0.39900
C613        C  0.88903461  0.44895955  0.24499081    -0.12200
C614        C  0.89243837  0.47264947  0.25912958     0.04800
C615        C  0.89806546  0.47574630  0.28932169    -0.07500
C616        C  0.89788770  0.45422666  0.30513566    -0.08300
C617        C  0.89145240  0.42919589  0.29145090    -0.02800
C618        C  0.88832562  0.42724882  0.26077981     0.04000
N619        N  0.88332078  0.40296402  0.24539382     0.66500
H620        H  0.88504013  0.44639047  0.22173758     0.15400
H621        H  0.90088711  0.45643615  0.32855217     0.15100
N622        N  0.90363700  0.50042056  0.30425390     0.74200
O623        O  0.90364342  0.40122011  0.23644754    -0.39200
O624        O  0.85925190  0.38620616  0.23585035    -0.39200
O625        O  0.88577021  0.49978018  0.32141764    -0.39900
O626        O  0.92808660  0.52101325  0.30467015    -0.39900
C627        C  0.87012882  0.45265234  0.16233036    -0.12200
C628        C  0.84365250  0.44856487  0.16714093     0.04800
C629        C  0.82015309  0.42245632  0.16077373    -0.07500
C630        C  0.82377169  0.40123804  0.14895123    -0.08300
C631        C  0.85060406  0.40547069  0.14499824    -0.02800
C632        C  0.87388895  0.43151165  0.15228745     0.04000
N633        N  0.90178554  0.43731095  0.14896242     0.66500
H634        H  0.88846192  0.47261008  0.16685230     0.15400
H635        H  0.80573476  0.38147067  0.14317858     0.15100
N636        N  0.79278060  0.41752980  0.16513198     0.74200
O637        O  0.91763157  0.45569318  0.13103400    -0.39200
O638        O  0.91244909  0.43030585  0.16905042    -0.39200
O639        O  0.77971832  0.41995211  0.14394385    -0.39900
O640        O  0.77985661  0.40559274  0.18812472    -0.39900
C641        C  0.02418974  0.63401498  0.46329077    -0.12200
C642        C  0.03551927  0.61851822  0.47463249     0.04800
C643        C  0.01707099  0.59064609  0.48292810    -0.07500
C644        C  0.98866076  0.57851282  0.47779239    -0.08300
C645        C  0.97748746  0.59330061  0.46465509    -0.02800
C646        C  0.99540378  0.62172877  0.45847220     0.04000
N647        N  0.98500303  0.63810142  0.44622051     0.66500
H648        H  0.03776178  0.65555631  0.45731294     0.15400
H649        H  0.97519711  0.55695027  0.48385248     0.15100
N650        N  0.02662042  0.57409926  0.49665006     0.74200
O651        O  0.97845841  0.65169302  0.46290241    -0.39200
O652        O  0.98768089  0.64336915  0.41926825    -0.39200
O653        O  0.02449959  0.57085738  0.52394991    -0.39900
O654        O  0.03043860  0.55768309  0.48134120    -0.39900
C655        C  0.98741467  0.58449928  0.19441425    -0.12200
C656        C  0.97249453  0.59612293  0.20604094     0.04800
C657        C  0.98740343  0.62244166  0.21946992    -0.07500
C658        C  0.01657250  0.63589463  0.22193844    -0.08300
C659        C  0.03113753  0.62323766  0.21174511    -0.02800
C660        C  0.01607767  0.59727326  0.19751864     0.04000
N661        N  0.02924968  0.58291664  0.18670903     0.66500
H662        H  0.97664001  0.56460772  0.18340812     0.15400
H663        H  0.02767042  0.65563724  0.23316989     0.15100
N664        N  0.97327665  0.63495016  0.23230997     0.74200
O665        O  0.03231277  0.56685837  0.20360123    -0.39200
O666        O  0.03020652  0.58002666  0.15954411    -0.39200
O667        O  0.96745209  0.63142543  0.25911084    -0.39900
O668        O  0.97160000  0.65354831  0.21854193    -0.39900
C669        C  0.14223146  0.69867603  0.32475785    -0.12200
C670        C  0.11536833  0.67990306  0.31444994     0.04800
C671        C  0.09381992  0.66531089  0.33477442    -0.07500
C672        C  0.09978580  0.66824195  0.36473953    -0.08300
C673        C  0.12713894  0.68509845  0.37487122    -0.02800
C674        C  0.14831204  0.70115451  0.35465673     0.04000
N675        N  0.17625916  0.71940523  0.36411386     0.66500
H676        H  0.15903289  0.71008569  0.30945413     0.15400
H677        H  0.08325134  0.65589116  0.38000787     0.15100
N678        N  0.06591986  0.64697320  0.32528937     0.74200
O679        O  0.19386685  0.71179859  0.36234083    -0.39200
O680        O  0.18436266  0.74450086  0.36932329    -0.39200
O681        O  0.05618758  0.62111902  0.32563402    -0.39900
O682        O  0.04964813  0.65613470  0.32218753    -0.39900
C683        C  0.15468282  0.69801608  0.10689641    -0.12200
C684        C  0.13125070  0.68545402  0.12504453     0.04800
C685        C  0.10465631  0.66965969  0.11204000    -0.07500
C686        C  0.10224083  0.66480222  0.08182663    -0.08300
C687        C  0.12584393  0.67649744  0.06399667    -0.02800
C688        C  0.15213522  0.69406494  0.07662830     0.04000
N689        N  0.17668052  0.70654103  0.05921122     0.66500
H690        H  0.17524230  0.71037987  0.11634352     0.15400
H691        H  0.08188109  0.65145570  0.07231783     0.15100
N692        N  0.08003420  0.65699102  0.12933103     0.74200
O693        O  0.18677734  0.73122188  0.05056530    -0.39200
O694        O  0.19088465  0.69496965  0.05716194    -0.39200
O695        O  0.06472034  0.66742226  0.12991215    -0.39900
O696        O  0.07134416  0.63323838  0.14004874    -0.39900
C697        C  0.00944165  0.41617203  0.31425925    -0.12200
C698        C  0.02554942  0.40739238  0.32921951     0.04800
C699        C  0.01203080  0.38421156  0.34797227    -0.07500
C700        C  0.98315503  0.37136582  0.35250846    -0.08300
C701        C  0.96750060  0.38135955  0.33868440    -0.02800
C702        C  0.98087286  0.40349865  0.31873070     0.04000
N703        N  0.96566072  0.41321868  0.30247651     0.66500
H704        H  0.01919489  0.43340350  0.29910311     0.15400
H705        H  0.97319025  0.35434258  0.36786466     0.15100
N706        N  0.02744612  0.37465267  0.36401373     0.74200
O707        O  0.96637894  0.43511482  0.31035649    -0.39200
O708        O  0.95680678  0.40359918  0.27732098    -0.39200
O709        O  0.03437786  0.38242359  0.39005377    -0.39900
O710        O  0.02902391  0.35443623  0.35444705    -0.39900
C711        C  0.13344637  0.55512495  0.28283675    -0.12200
C712        C  0.15862127  0.55611877  0.28708815     0.04800
C713        C  0.18373373  0.58099880  0.28139176    -0.07500
C714        C  0.18294813  0.60408094  0.27013441    -0.08300
C715        C  0.15738708  0.60289167  0.26630410    -0.02800
C716        C  0.13249477  0.57807807  0.27335056     0.04000
N717        N  0.10572824  0.57534136  0.27037446     0.66500
H718        H  0.11398267  0.53625290  0.28756259     0.15400
H719        H  0.20216998  0.62293693  0.26482608     0.15100
N720        N  0.20985564  0.58294150  0.28634470     0.74200
O721        O  0.08829011  0.55751997  0.25290049    -0.39200
O722        O  0.09709240  0.58427665  0.29051420    -0.39200
O723        O  0.22220873  0.57929552  0.26543888    -0.39900
O724        O  0.22270383  0.59306587  0.30997027    -0.39900
C725        C  0.10799286  0.55223199  0.36768016    -0.12200
C726        C  0.10863133  0.53014432  0.38138889     0.04800
C727        C  0.10711988  0.52829866  0.41209568    -0.07500
C728        C  0.10739960  0.54950387  0.42845531    -0.08300
C729        C  0.11010845  0.57321414  0.41481051    -0.02800
C730        C  0.10882253  0.57370999  0.38403612     0.04000
N731        N  0.10875220  0.59603852  0.36901727     0.66500
H732        H  0.10856345  0.55378530  0.34410158     0.15400
H733        H  0.10762634  0.54830488  0.45204087     0.15100
N734        N  0.10560540  0.50518599  0.42701391     0.74200
O735        O  0.13062681  0.61439932  0.35672337    -0.39200
O736        O  0.08584536  0.59404154  0.36269561    -0.39200
O737        O  0.12638961  0.50818984  0.44109165    -0.39900
O738        O  0.08220718  0.48363254  0.43077037    -0.39900
C739        C  0.98821814  0.40469899  0.06844058    -0.12200
C740        C  0.97767090  0.38338956  0.08919848     0.04800
C741        C  0.99575237  0.37610975  0.10264043    -0.07500
C742        C  0.02426565  0.39132651  0.09622830    -0.08300
C743        C  0.03493796  0.41381774  0.07673265    -0.02800
C744        C  0.01642546  0.41977089  0.06202058     0.04000
N745        N  0.02583715  0.44088097  0.04020189     0.66500
H746        H  0.97448521  0.41023020  0.05757471     0.15400
H747        H  0.03826514  0.38657282  0.10776267     0.15100
N748        N  0.98605564  0.35528860  0.12476084     0.74200
O749        O  0.02506923  0.43419799  0.01383488    -0.39200
O750        O  0.02774104  0.46372679  0.04624090    -0.39200
O751        O  0.98340024  0.33204928  0.11911318    -0.39900
O752        O  0.98604325  0.36206107  0.15096774    -0.39900
C753        C  0.18464065  0.56946098  0.00805488    -0.12200
C754        C  0.18252469  0.56785514  0.03855629     0.04800
C755        C  0.18613812  0.59115364  0.05413392    -0.07500
C756        C  0.18574997  0.61270947  0.03904354    -0.08300
C757        C  0.18340370  0.61211143  0.00853145    -0.02800
C758        C  0.18586886  0.59180243  0.99295744     0.04000
N759        N  0.18686783  0.59316820  0.46046904     0.66500
H760        H  0.18283370  0.55212434  0.99576177     0.15400
H761        H  0.18472687  0.62863950  0.05134826     0.15100
N762        N  0.18649627  0.59161483  0.08526672     0.74200
O763        O  0.21020226  0.60745156  0.44835944    -0.39200
O764        O  0.16646145  0.57555810  0.44560486    -0.39200
O765        O  0.20952844  0.60380210  0.09847974    -0.39900
O766        O  0.16473842  0.58604355  0.09885477    -0.39900
C767        C  0.10808725  0.55514948  0.12229970    -0.12200
C768        C  0.11469625  0.53661161  0.13566106     0.04800
C769        C  0.11846877  0.53810102  0.16634574    -0.07500
C770        C  0.11738777  0.55881542  0.18236146    -0.08300
C771        C  0.11347122  0.57889161  0.16848442    -0.02800
C772        C  0.10840714  0.57670190  0.13814679     0.04000
N773        N  0.10475569  0.59684749  0.12281313     0.66500
H774        H  0.10506314  0.55452891  0.09889501     0.15400
H775        H  0.12148705  0.56026834  0.20560930     0.15100
N776        N  0.12434355  0.51939454  0.18158819     0.74200
O777        O  0.12577087  0.61823999  0.11281080    -0.39200
O778        O  0.08095450  0.59017309  0.11332381    -0.39200
O779        O  0.14885144  0.52764797  0.18999954    -0.39900
O780        O  0.10455607  0.49726209  0.19199063    -0.39900
C781        C  0.09913981  0.43102274  0.43279352    -0.12200
C782        C  0.12548730  0.43933775  0.42139548     0.04800
C783        C  0.14790212  0.44686891  0.44073409    -0.07500
C784        C  0.14412440  0.44788327  0.47070849    -0.08300
C785        C  0.11837448  0.44184593  0.48183392    -0.02800
C786        C  0.09544560  0.43229152  0.46281277     0.04000
N787        N  0.06837532  0.42385498  0.47358984     0.66500
H788        H  0.08168305  0.42508744  0.41824138     0.15400
H789        H  0.16179612  0.45479709  0.48522660     0.15100
N790        N  0.17475851  0.45408307  0.43024354     0.74200
O791        O  0.05866644  0.43957483  0.47001809    -0.39200
O792        O  0.05643003  0.39943471  0.98425181    -0.39200
O793        O  0.19343774  0.47931477  0.42820178    -0.39900
O794        O  0.18141982  0.43574370  0.42933120    -0.39900
C795        C  0.09935059  0.43045663  0.18082220    -0.12200
C796        C  0.12697438  0.44084666  0.17208937     0.04800
C797        C  0.14750687  0.44739262  0.19363053    -0.07500
C798        C  0.14031556  0.44418411  0.22317489    -0.08300
C799        C  0.11317828  0.43587220  0.23189975    -0.02800
C800        C  0.09246366  0.42869510  0.21043760     0.04000
N801        N  0.06468729  0.42077944  0.21826291     0.66500
H802        H  0.08341366  0.42582592  0.16459595     0.15400
H803        H  0.15653586  0.45021956  0.23943309     0.15100
N804        N  0.17600070  0.45867903  0.18596386     0.74200
O805        O  0.05838848  0.43925485  0.22128485    -0.39200
O806        O  0.04556742  0.39578087  0.21559209    -0.39200
O807        O  0.19274181  0.48441334  0.18859006    -0.39900
O808        O  0.18536003  0.44263490  0.18266602    -0.39900
C809        C  0.25299984  0.48534068  0.29958887    -0.12200
C810        C  0.25453605  0.46166405  0.30602010     0.04800
C811        C  0.23059362  0.43790756  0.31692682    -0.07500
C812        C  0.20625142  0.43865394  0.32198247    -0.08300
C813        C  0.20502058  0.46265506  0.31612805    -0.02800
C814        C  0.22872166  0.48599653  0.30419324     0.04000
N815        N  0.22842331  0.51040213  0.29576945     0.66500
H816        H  0.27074647  0.50359559  0.29039909     0.15400
H817        H  0.18839753  0.42045597  0.33108851     0.15100
N818        N  0.23077182  0.41313877  0.32379387     0.74200
O819        O  0.24014799  0.53165495  0.31180193    -0.39200
O820        O  0.22168818  0.51253094  0.27001494    -0.39200
O821        O  0.23499262  0.40867419  0.34975559    -0.39900
O822        O  0.22140562  0.39361881  0.30548502    -0.39900
C823        C  0.23836720  0.44885725  0.04916863    -0.12200
C824        C  0.26408544  0.47116777  0.05837097     0.04800
C825        C  0.26446123  0.49276239  0.07452045    -0.07500
C826        C  0.23962319  0.49213012  0.08029567    -0.08300
C827        C  0.21389024  0.47007964  0.07069610    -0.02800
C828        C  0.21344678  0.44816050  0.05502770     0.04000
N829        N  0.18811672  0.42567974  0.04366178     0.66500
H830        H  0.23760864  0.43215891  0.03657666     0.15400
H831        H  0.24051171  0.50882278  0.09301847     0.15100
N832        N  0.28964116  0.51459451  0.08688919     0.74200
O833        O  0.17922387  0.42832560  0.01925709    -0.39200
O834        O  0.17812582  0.40182527  0.05468236    -0.39200
O835        O  0.30035678  0.53881752  0.07664367    -0.39900
O836        O  0.29734270  0.51102818  0.11158840    -0.39900
C837        C  0.30401857  0.43977411  0.40285833    -0.12200
C838        C  0.32554369  0.43645575  0.39205499     0.04800
C839        C  0.34234982  0.43210308  0.41178374    -0.07500
C840        C  0.33863660  0.43308724  0.44182271    -0.08300
C841        C  0.31878517  0.43895602  0.45251113    -0.02800
C842        C  0.30077806  0.44145094  0.43284961     0.04000
N843        N  0.27972518  0.44659199  0.44296745     0.66500
H844        H  0.29085755  0.44302464  0.38795349     0.15400
H845        H  0.35259794  0.43115112  0.45679244     0.15100
N846        N  0.36362425  0.42729067  0.40168131     0.74200
O847        O  0.28432383  0.47108717  0.44314731    -0.39200
O848        O  0.25509596  0.42657141  0.44533182    -0.39200
O849        O  0.38873579  0.44644171  0.40340784    -0.39900
O850        O  0.35786493  0.40274562  0.39701589    -0.39900
C851        C  0.30382493  0.44515728  0.15329993    -0.12200
C852        C  0.32456532  0.43999949  0.14397886     0.04800
C853        C  0.33873142  0.43306941  0.16463948    -0.07500
C854        C  0.33264405  0.43238292  0.19425217    -0.08300
C855        C  0.31347618  0.43972325  0.20380753    -0.02800
C856        C  0.29859187  0.44566497  0.18302147     0.04000
N857        N  0.27893069  0.45328860  0.19171086     0.66500
H858        H  0.29302546  0.45078424  0.13756407     0.15400
H859        H  0.34447110  0.42806052  0.20997086     0.15100
N860        N  0.36010573  0.42779971  0.15602003     0.74200
O861        O  0.28641919  0.47863866  0.19317275    -0.39200
O862        O  0.25336004  0.43529288  0.19119883    -0.39200
O863        O  0.38522900  0.44672501  0.15865498    -0.39900
O864        O  0.35421313  0.40311797  0.15207338    -0.39900
C865        C  0.47729630  0.57350052  0.48541263    -0.12200
C866        C  0.47298162  0.57230619  0.45515806     0.04800
C867        C  0.45000887  0.54842288  0.44309989    -0.07500
C868        C  0.42929181  0.52897859  0.46152949    -0.08300
C869        C  0.43203415  0.53188515  0.49197578    -0.02800
C870        C  0.45657844  0.55408704  0.00781701     0.04000
N871        N  0.46163748  0.55732028  0.03852436     0.66500
H872        H  0.49424427  0.59216540  0.99829529     0.15400
H873        H  0.41045621  0.51217509  0.45194574     0.15100
N874        N  0.44637128  0.54456795  0.41228744     0.74200
O875        O  0.47552690  0.54789042  0.05031035    -0.39200
O876        O  0.45743493  0.57417585  0.05243357    -0.39200
O877        O  0.45379706  0.52946870  0.39964120    -0.39900
O878        O  0.43054644  0.55085935  0.39914938    -0.39900
C879        C  0.41734049  0.57844415  0.31706952    -0.12200
C880        C  0.39486648  0.56191960  0.33543865     0.04800
C881        C  0.39552470  0.57068463  0.36430286    -0.07500
C882        C  0.41973372  0.59402044  0.37513459    -0.08300
C883        C  0.44368909  0.60836378  0.35770861    -0.02800
C884        C  0.44150414  0.60159411  0.32775407     0.04000
N885        N  0.46416582  0.61696190  0.30819812     0.66500
H886        H  0.41725968  0.57191127  0.29487561     0.15400
H887        H  0.42062338  0.59906876  0.39805334     0.15100
N888        N  0.37234819  0.55534926  0.38320199     0.74200
O889        O  0.47874512  0.60690280  0.30025129    -0.39200
O890        O  0.46518254  0.63663615  0.29375112    -0.39200
O891        O  0.37259680  0.53859265  0.40143758    -0.39900
O892        O  0.35416805  0.56217586  0.38523017    -0.39900
C893        C  0.55579154  0.70110121  0.27114305    -0.12200
C894        C  0.56709118  0.69010566  0.25186467     0.04800
C895        C  0.58150956  0.67751543  0.26325747    -0.07500
C896        C  0.58208341  0.67394828  0.29341348    -0.08300
C897        C  0.56877378  0.68300622  0.31227363    -0.02800
C898        C  0.55622517  0.69736172  0.30114091     0.04000
N899        N  0.54051527  0.70477705  0.31957617     0.66500
H900        H  0.54458604  0.71072925  0.26278927     0.15400
H901        H  0.59152400  0.66265008  0.30199744     0.15100
N902        N  0.59318927  0.66577797  0.24460088     0.74200
O903        O  0.54965336  0.72996426  0.32537480    -0.39200
O904        O  0.51546542  0.68707192  0.32496887    -0.39200
O905        O  0.61915799  0.67841215  0.24102018    -0.39900
O906        O  0.57864781  0.64066415  0.23709430    -0.39900
C907        C  0.55892409  0.69845544  0.05101578    -0.12200
C908        C  0.56540535  0.67939555  0.06287232     0.04800
C909        C  0.57304332  0.66452868  0.04416730    -0.07500
C910        C  0.57282620  0.66792812  0.01400574    -0.08300
C911        C  0.56382736  0.68500036  0.00206919    -0.02800
C912        C  0.55743361  0.70089675  0.02079847     0.04000
N913        N  0.54796698  0.71843337  0.00954600     0.66500
H914        H  0.55279163  0.70982721  0.06518841     0.15400
H915        H  0.57738746  0.65531114  0.99986207     0.15100
N916        N  0.57903627  0.64437223  0.05532777     0.74200
O917        O  0.52222670  0.70952835  0.00853195    -0.39200
O918        O  0.56137791  0.74352322  0.50598472    -0.39200
O919        O  0.56082719  0.61898472  0.05323404    -0.39900
O920        O  0.60387248  0.65136681  0.06084858    -0.39900
C921        C  0.43991299  0.58028031  0.21392934    -0.12200
C922        C  0.46422173  0.57950452  0.20985594     0.04800
C923        C  0.46623709  0.55738419  0.22163461    -0.07500
C924        C  0.44387385  0.53657025  0.23771809    -0.08300
C925        C  0.41916858  0.53707163  0.24104008    -0.02800
C926        C  0.41731632  0.55920502  0.22876074     0.04000
N927        N  0.39314027  0.56141403  0.23239324     0.66500
H928        H  0.43846633  0.59757959  0.20553088     0.15400
H929        H  0.44568935  0.51991485  0.24738335     0.15100
N930        N  0.49102773  0.55633511  0.21836720     0.74200
O931        O  0.39370669  0.57864795  0.25041717    -0.39200
O932        O  0.37435667  0.55149149  0.21314166    -0.39200
O933        O  0.50738697  0.56224982  0.23973755    -0.39900
O934        O  0.49399604  0.54487850  0.19616307    -0.39900
C935        C  0.41990773  0.59364764  0.13401766    -0.12200
C936        C  0.44129688  0.61385236  0.11662002     0.04800
C937        C  0.43738266  0.61297109  0.08616618    -0.07500
C938        C  0.41470260  0.58959231  0.07342910    -0.08300
C939        C  0.39596070  0.56711567  0.09081865    -0.02800
C940        C  0.39720531  0.57038671  0.12130803     0.04000
N941        N  0.37652007  0.54927138  0.13952754     0.66500
H942        H  0.42204638  0.59448696  0.15749787     0.15400
H943        H  0.41350230  0.58784807  0.04986775     0.15100
N944        N  0.45696931  0.63499798  0.06793768     0.74200
O945        O  0.38298291  0.53606360  0.15701775    -0.39200
O946        O  0.35142752  0.54260539  0.13681292    -0.39200
O947        O  0.47585628  0.63300305  0.05534679    -0.39900
O948        O  0.45241885  0.65398777  0.06045676    -0.39900
C949        C  0.40551220  0.41969337  0.30920056    -0.12200
C950        C  0.37972437  0.40936530  0.29546794     0.04800
C951        C  0.36826501  0.38400082  0.28012138    -0.07500
C952        C  0.38358442  0.37049341  0.27752857    -0.08300
C953        C  0.41019317  0.38193142  0.29009301    -0.02800
C954        C  0.42054918  0.40632243  0.30679718     0.04000
N955        N  0.44702484  0.41865869  0.32063642     0.66500
H956        H  0.41442045  0.43869957  0.32180809     0.15400
H957        H  0.37514836  0.35169600  0.26466977     0.15100
N958        N  0.34203358  0.37256496  0.26568254     0.74200
O959        O  0.46657802  0.44092797  0.31028515    -0.39200
O960        O  0.44888536  0.41151651  0.34627480    -0.39200
O961        O  0.34127672  0.37520371  0.23841430    -0.39900
O962        O  0.32027949  0.35513964  0.27887747    -0.39900
C963        C  0.38662001  0.37268387  0.03304639    -0.12200
C964        C  0.41430357  0.38501588  0.04284477     0.04800
C965        C  0.42604148  0.41048395  0.05810914    -0.07500
C966        C  0.41068359  0.42338095  0.06204525    -0.08300
C967        C  0.38379452  0.41232843  0.05053520    -0.02800
C968        C  0.37135857  0.38616660  0.03658953     0.04000
N969        N  0.34390580  0.37356727  0.02478861     0.66500
H970        H  0.37721977  0.35315072  0.02138511     0.15400
H971        H  0.42054031  0.44293195  0.07371257     0.15100
N972        N  0.45375570  0.42407649  0.06960623     0.74200
O973        O  0.34058717  0.37701731  0.99819753    -0.39200
O974        O  0.32388220  0.35466986  0.03897924    -0.39200
O975        O  0.47365203  0.43983755  0.05310223    -0.39900
O976        O  0.45715758  0.42763641  0.09679988    -0.39900
C977        C  0.44284686  0.30690155  0.43072646    -0.12200
C978        C  0.43890942  0.32819249  0.44096820     0.04800
C979        C  0.43335343  0.34380261  0.42078969    -0.07500
C980        C  0.43339918  0.33894834  0.39087903    -0.08300
C981        C  0.43966390  0.31924498  0.38061639    -0.02800
C982        C  0.44366004  0.30257895  0.40081106     0.04000
N983        N  0.44927198  0.28168871  0.39132308     0.66500
H984        H  0.44714636  0.29472817  0.44595054     0.15400
H985        H  0.43037917  0.35196172  0.37558356     0.15100
N986        N  0.42840785  0.36515178  0.43025230     0.74200
O987        O  0.47384017  0.28640899  0.39236678    -0.39200
O988        O  0.42939893  0.25703610  0.38860730    -0.39200
O989        O  0.44776303  0.39017159  0.42892928    -0.39900
O990        O  0.40374806  0.35959170  0.43376641    -0.39900
C991        C  0.45180869  0.30559785  0.14891503    -0.12200
C992        C  0.44675574  0.32242825  0.13029697     0.04800
C993        C  0.43711100  0.33907911  0.14224784    -0.07500
C994        C  0.43458790  0.34021110  0.17240744    -0.08300
C995        C  0.44137920  0.32488472  0.19124700    -0.02800
C996        C  0.44897905  0.30647148  0.17926782     0.04000
N997        N  0.45603108  0.29021236  0.19745943     0.66500
H998        H  0.45911765  0.29261410  0.13995775     0.15400
H999        H  0.42890322  0.35453212  0.18125747     0.15100
N1000       N  0.43384907  0.35813389  0.12450405     0.74200
O1001       O  0.44209540  0.26411920  0.19536372    -0.39200
O1002       O  0.47958829  0.30158823  0.20961289    -0.39200
O1003       O  0.40979856  0.35267302  0.11729320    -0.39900
O1004       O  0.45400718  0.38264024  0.12219995    -0.39900
C1005       C  0.77510506  0.56389803  0.43208820    -0.12200
C1006       C  0.74921940  0.53989027  0.43712596     0.04800
C1007       C  0.74870837  0.51612432  0.44854042    -0.07500
C1008       C  0.77355312  0.51677377  0.45423014    -0.08300
C1009       C  0.79946053  0.54060659  0.44885552    -0.02800
C1010       C  0.80004086  0.56442710  0.43762293     0.04000
N1011       N  0.82563641  0.58903581  0.43067221     0.66500
H1012       H  0.77609298  0.58224494  0.42303579     0.15400
H1013       H  0.77238686  0.49830720  0.46318232     0.15100
N1014       N  0.72321480  0.49109815  0.45490367     0.74200
O1015       O  0.83742342  0.59094739  0.90386956    -0.39200
O1016       O  0.83705253  0.61228299  0.94335748    -0.39200
O1017       O  0.71383186  0.47120232  0.43705874    -0.39900
O1018       O  0.71410553  0.48654636  0.48065557    -0.39900
C1019       C  0.60757356  0.58643316  0.39575208    -0.12200
C1020       C  0.62832180  0.59619310  0.41726168     0.04800
C1021       C  0.63576414  0.62136209  0.43162944    -0.07500
C1022       C  0.62112751  0.63515186  0.42550048    -0.08300
C1023       C  0.59932358  0.62434928  0.40497115    -0.02800
C1024       C  0.59370760  0.60051908  0.38898453     0.04000
N1025       N  0.57433781  0.59066090  0.36524048     0.66500
H1026       H  0.60208921  0.56762595  0.38386333     0.15400
H1027       H  0.62582859  0.65346630  0.43791676     0.15100
N1028       N  0.65642485  0.63194850  0.45408089     0.74200
O1029       O  0.58128139  0.60337722  0.34118453    -0.39200
O1030       O  0.55283814  0.56685280  0.36651818    -0.39200
O1031       O  0.67923335  0.65411736  0.44985138    -0.39900
O1032       O  0.64996894  0.62222493  0.47956158    -0.39900
C1033       C  0.58907164  0.42687980  0.44551569    -0.12200
C1034       C  0.61196554  0.44373400  0.46330429     0.04800
C1035       C  0.61210923  0.43595879  0.49244031    -0.07500
C1036       C  0.58836636  0.41280856  0.50394858    -0.08300
C1037       C  0.56412160  0.39781074  0.48691141    -0.02800
C1038       C  0.56530848  0.40401722  0.45686248     0.04000
N1039       N  0.54185478  0.38880655  0.43801777     0.66500
H1040       H  0.58841326  0.43312523  0.42333885     0.15400
H1041       H  0.58806710  0.40836261  0.52699763     0.15100
N1042       N  0.63553662  0.45225025  0.51092464     0.74200
O1043       O  0.52713349  0.39906344  0.43107252    -0.39200
O1044       O  0.54007811  0.36908887  0.42310740    -0.39200
O1045       O  0.63521635  0.46934294  0.52851425    -0.39900
O1046       O  0.65434958  0.44628333  0.51308247    -0.39900
C1047       C  0.56474942  0.47191092  0.36021529    -0.12200
C1048       C  0.58700383  0.46847303  0.36786611     0.04800
C1049       C  0.58647248  0.44392744  0.35977449    -0.07500
C1050       C  0.56313346  0.42286379  0.34564148    -0.08300
C1051       C  0.54097777  0.42631737  0.33741420    -0.02800
C1052       C  0.54218512  0.45141768  0.34419654     0.04000
N1053       N  0.52068898  0.45641372  0.33566283     0.66500
H1054       H  0.56513398  0.49078041  0.36623747     0.15400
H1055       H  0.56276094  0.40389560  0.34006501     0.15100
N1056       N  0.60930475  0.43989261  0.36581737     0.74200
O1057       O  0.50536957  0.45727735  0.35521502    -0.39200
O1058       O  0.52321891  0.46872895  0.31179533    -0.39200
O1059       O  0.60495625  0.41828502  0.37907902    -0.39900
O1060       O  0.63155767  0.45367055  0.35165588    -0.39900
C1061       C  0.74251961  0.51897283  0.20502356    -0.12200
C1062       C  0.74349658  0.53884773  0.18553188     0.04800
C1063       C  0.76941762  0.55889104  0.17377464    -0.07500
C1064       C  0.79362859  0.55893540  0.18187894    -0.08300
C1065       C  0.79253701  0.53896073  0.20118630    -0.02800
C1066       C  0.76674255  0.51912576  0.21319604     0.04000
N1067       N  0.76510595  0.50000431  0.23492877     0.66500
H1068       H  0.72293317  0.50373587  0.21470717     0.15400
H1069       H  0.81326821  0.57411123  0.17227376     0.15100
N1070       N  0.77128014  0.57813264  0.15211870     0.74200
O1071       O  0.77658735  0.50881654  0.25944852    -0.39200
O1072       O  0.75345885  0.47447434  0.22914406    -0.39200
O1073       O  0.78287485  0.60358327  0.15827287    -0.39900
O1074       O  0.76614287  0.57055056  0.12581623    -0.39900
C1075       C  0.61657332  0.63601167  0.17799305    -0.12200
C1076       C  0.59430028  0.62430071  0.15805040     0.04800
C1077       C  0.58863277  0.60013204  0.14275761    -0.07500
C1078       C  0.60393679  0.58736890  0.14875652    -0.08300
C1079       C  0.62492465  0.59789507  0.17002123    -0.02800
C1080       C  0.63167139  0.62280921  0.18438010     0.04000
N1081       N  0.65181924  0.63347914  0.20731835     0.66500
H1082       H  0.62120833  0.65455308  0.18988601     0.15400
H1083       H  0.59880361  0.56850150  0.13715938     0.15100
N1084       N  0.56766481  0.58840487  0.12064553     0.74200
O1085       O  0.67459033  0.65578679  0.20350601    -0.39200
O1086       O  0.64469142  0.62390867  0.23277998    -0.39200
O1087       O  0.57500485  0.59109848  0.09430812    -0.39900
O1088       O  0.54338869  0.56963639  0.12744404    -0.39900
C1089       C  0.58098713  0.41781053  0.26385487    -0.12200
C1090       C  0.56236011  0.39614814  0.24560999     0.04800
C1091       C  0.56854232  0.39736549  0.21568543    -0.07500
C1092       C  0.59166399  0.42124744  0.20420168    -0.08300
C1093       C  0.60813013  0.44451226  0.22196009    -0.02800
C1094       C  0.60338970  0.44203109  0.25237087     0.04000
N1095       N  0.61961069  0.46476623  0.27163318     0.66500
H1096       H  0.57654016  0.41723361  0.28687613     0.15400
H1097       H  0.59493700  0.42258354  0.18083866     0.15100
N1098       N  0.55082993  0.37513434  0.19651907     0.74200
O1099       O  0.60895223  0.47766313  0.28291247    -0.39200
O1100       O  0.64236299  0.46851983  0.28144564    -0.39200
O1101       O  0.53166172  0.37588872  0.18275605    -0.39900
O1102       O  0.55758237  0.35769417  0.18927130    -0.39900
C1103       C  0.66332756  0.56877570  0.29217893    -0.12200
C1104       C  0.68153184  0.56762885  0.27215734     0.04800
C1105       C  0.70518857  0.56736353  0.28274617    -0.07500
C1106       C  0.70894119  0.56614228  0.31286352    -0.08300
C1107       C  0.69001969  0.56615737  0.33270758    -0.02800
C1108       C  0.66745205  0.56822387  0.32215856     0.04000
N1109       N  0.64724212  0.56756885  0.34152628     0.66500
H1110       H  0.64515724  0.56911589  0.28453111     0.15400
H1111       H  0.72627775  0.56442540  0.32074792     0.15100
N1112       N  0.72448105  0.56628506  0.26331760     0.74200
O1113       O  0.64880583  0.59007549  0.34843174    -0.39200
O1114       O  0.62477302  0.54499049  0.34555764    -0.39200
O1115       O  0.74714902  0.58819542  0.25777656    -0.39900
O1116       O  0.72142356  0.54310072  0.25653267    -0.39900
C1117       C  0.66390692  0.56965973  0.03999163    -0.12200
C1118       C  0.68155884  0.56525878  0.02214826     0.04800
C1119       C  0.70253418  0.56185246  0.03514264    -0.07500
C1120       C  0.70430261  0.56109905  0.06554614    -0.08300
C1121       C  0.68574567  0.56412519  0.08329751    -0.02800
C1122       C  0.66590432  0.56924953  0.07037084     0.04000
N1123       N  0.64583481  0.57124587  0.08767247     0.66500
H1124       H  0.64763437  0.57217482  0.03029973     0.15400
H1125       H  0.71937932  0.55680311  0.07531261     0.15100
N1126       N  0.71986438  0.55566446  0.01794994     0.74200
O1127       O  0.64872460  0.59472806  0.09240112    -0.39200
O1128       O  0.62283996  0.54965598  0.09302472    -0.39200
O1129       O  0.73877305  0.56276002  0.51352455    -0.39900
O1130       O  0.71191434  0.53067754  0.01245729    -0.39900
C1131       C  0.53244329  0.43375766  0.11402329    -0.12200
C1132       C  0.53764538  0.43488071  0.08399283     0.04800
C1133       C  0.56107225  0.45860965  0.07247278    -0.07500
C1134       C  0.58097581  0.47831602  0.09147927    -0.08300
C1135       C  0.57711430  0.47573196  0.12186006    -0.02800
C1136       C  0.55149798  0.45440870  0.13285703     0.04000
N1137       N  0.54524496  0.45234749  0.16323665     0.66500
H1138       H  0.51395853  0.41617633  0.12308793     0.15400
H1139       H  0.60011893  0.49502060  0.08244603     0.15100
N1140       N  0.56599532  0.46205620  0.04178581     0.74200
O1141       O  0.53207781  0.46332858  0.17297758    -0.39200
O1142       O  0.54812535  0.43551236  0.17897416    -0.39200
O1143       O  0.55884481  0.47672606  0.02759977    -0.39900
O1144       O  0.58237806  0.45565408  0.03033499    -0.39900
C1145       C  0.51378705  0.74392929  0.40995453    -0.12200
C1146       C  0.53787391  0.74314449  0.40332738     0.04800
C1147       C  0.56159173  0.76792713  0.39362580    -0.07500
C1148       C  0.56033091  0.79213799  0.38974260    -0.08300
C1149       C  0.53600385  0.79267105  0.39580334    -0.02800
C1150       C  0.51274881  0.76824440  0.40668494     0.04000
N1151       N  0.48820924  0.76794722  0.41570973     0.66500
H1152       H  0.49556980  0.72557238  0.41828522     0.15400
H1153       H  0.57853921  0.81059426  0.38156435     0.15100
N1154       N  0.58706961  0.76897365  0.38721538     0.74200
O1155       O  0.46734267  0.75793385  0.39898447    -0.39200
O1156       O  0.48545669  0.77218366  0.44216294    -0.39200
O1157       O  0.59454953  0.77055073  0.36102753    -0.39900
O1158       O  0.60470749  0.77490429  0.40730739    -0.39900
C1159       C  0.56086676  0.76900723  0.14071345    -0.12200
C1160       C  0.53828201  0.74713164  0.15539340     0.04800
C1161       C  0.51654256  0.75113939  0.16491401    -0.07500
C1162       C  0.51718543  0.77591549  0.15853646    -0.08300
C1163       C  0.53935143  0.79745178  0.14315494    -0.02800
C1164       C  0.56160098  0.79394102  0.13458820     0.04000
N1165       N  0.58442752  0.81484960  0.11828284     0.66500
H1166       H  0.57778311  0.76651999  0.13320148     0.15400
H1167       H  0.50028801  0.77843304  0.16607566     0.15100
N1168       N  0.49408012  0.73073287  0.18205790     0.74200
O1169       O  0.60735381  0.83029578  0.13089648    -0.39200
O1170       O  0.58339775  0.81407561  0.09080002    -0.39200
O1171       O  0.49517082  0.73315545  0.20945788    -0.39900
O1172       O  0.47112601  0.71445176  0.16991281    -0.39900
C1173       C  0.57855343  0.90756403  0.25261685    -0.12200
C1174       C  0.56641804  0.88488547  0.23359274     0.04800
C1175       C  0.55527076  0.85786832  0.24479889    -0.07500
C1176       C  0.55409327  0.85377893  0.27499150    -0.08300
C1177       C  0.56449590  0.87635693  0.29429362    -0.02800
C1178       C  0.57826276  0.90358276  0.28278517     0.04000
N1179       N  0.58971866  0.92732281  0.30138835     0.66500
H1180       H  0.58717919  0.92841074  0.24408490     0.15400
H1181       H  0.54378678  0.83276272  0.28338856     0.15100
N1182       N  0.54296875  0.83427240  0.22592839     0.74200
O1183       O  0.61547514  0.94055229  0.30661745    -0.39200
O1184       O  0.57539841  0.93810189  0.30759693    -0.39200
O1185       O  0.55686475  0.82332368  0.21848994    -0.39900
O1186       O  0.51707952  0.82134479  0.22152948    -0.39900
C1187       C  0.57732690  0.90821006  0.03201806    -0.12200
C1188       C  0.56590197  0.88125702  0.04325601     0.04800
C1189       C  0.55761935  0.85884941  0.02388390    -0.07500
C1190       C  0.55988252  0.86221970  0.49403179    -0.08300
C1191       C  0.56412936  0.88760726  0.48359451    -0.02800
C1192       C  0.56915389  0.90884161  0.50341795     0.04000
N1193       N  0.57361703  0.93504103  0.49364925     0.66500
H1194       H  0.58359332  0.92557461  0.04664749     0.15400
H1195       H  0.55564287  0.84565365  0.47893133     0.15100
N1196       N  0.54602061  0.83107265  0.03429439     0.74200
O1197       O  0.55333046  0.93890897  0.49234179    -0.39200
O1198       O  0.59802137  0.95570433  0.49311438    -0.39200
O1199       O  0.51997197  0.81519227  0.03444039    -0.39900
O1200       O  0.56136452  0.82074550  0.03628511    -0.39900
C1201       C  0.74099668  0.23456318  0.37357618    -0.12200
C1202       C  0.73843295  0.20943616  0.36456237     0.04800
C1203       C  0.76116635  0.21029191  0.35020998    -0.07500
C1204       C  0.78547246  0.23588153  0.34501201    -0.08300
C1205       C  0.78781425  0.26102721  0.35368988    -0.02800
C1206       C  0.76520821  0.26008285  0.36836947     0.04000
N1207       N  0.76670618  0.28469516  0.37914612     0.66500
H1208       H  0.72407776  0.23448462  0.38503865     0.15400
H1209       H  0.80243887  0.23605195  0.33355365     0.15100
N1210       N  0.75962324  0.18559999  0.33963173     0.74200
O1211       O  0.75832323  0.29736680  0.36325413    -0.39200
O1212       O  0.76958242  0.28951098  0.40617944    -0.39200
O1213       O  0.75421113  0.17929224  0.31305789    -0.39900
O1214       O  0.76997641  0.17420360  0.35464724    -0.39900
C1215       C  0.59127095  0.01080073  0.35758610    -0.12200
C1216       C  0.61835332  0.02830822  0.36806039     0.04800
C1217       C  0.63206465  0.01625572  0.38251730    -0.07500
C1218       C  0.61753297  0.98756242  0.38831066    -0.08300
C1219       C  0.58970747  0.97060639  0.37960412    -0.02800
C1220       C  0.57689716  0.98244551  0.36319923     0.04000
N1221       N  0.54908155  0.96614932  0.35225089     0.66500
H1222       H  0.58060959  0.01926192  0.34548061     0.15400
H1223       H  0.62781589  0.97865317  0.40031627     0.15100
N1224       N  0.66036508  0.03265423  0.39185239     0.74200
O1225       O  0.52913150  0.96239052  0.36818151    -0.39200
O1226       O  0.54519352  0.96266894  0.32508936    -0.39200
O1227       O  0.66629308  0.03326602  0.41852089    -0.39900
O1228       O  0.67948892  0.04081456  0.37321249    -0.39900
C1229       C  0.74688482  0.23792974  0.10016191    -0.12200
C1230       C  0.74696936  0.21478062  0.11179604     0.04800
C1231       C  0.77287812  0.21696863  0.11763467    -0.07500
C1232       C  0.79768012  0.24210865  0.11267581    -0.08300
C1233       C  0.79746408  0.26540970  0.10172785    -0.02800
C1234       C  0.77163369  0.26288004  0.09487028     0.04000
N1235       N  0.77008826  0.28501806  0.08129717     0.66500
H1236       H  0.72741164  0.23666854  0.09475822     0.15400
H1237       H  0.81723510  0.24347700  0.11790849     0.15100
N1238       N  0.77452743  0.19419327  0.12927175     0.74200
O1239       O  0.77100918  0.28701703  0.05385790    -0.39200
O1240       O  0.76240163  0.29888425  0.09598525    -0.39200
O1241       O  0.77896410  0.17918180  0.11234833    -0.39900
O1242       O  0.77697300  0.19246379  0.15644472    -0.39900
C1243       C  0.63475229  0.02059164  0.11829687    -0.12200
C1244       C  0.62462404  0.03609492  0.13202274     0.04800
C1245       C  0.60262241  0.02230255  0.15196484    -0.07500
C1246       C  0.59007608  0.99380950  0.15641553    -0.08300
C1247       C  0.59851261  0.97777521  0.14122274    -0.02800
C1248       C  0.62185159  0.99161234  0.12265301     0.04000
N1249       N  0.63171642  0.97651905  0.10679972     0.66500
H1250       H  0.65179527  0.03068785  0.10302177     0.15400
H1251       H  0.57280482  0.98401934  0.17148580     0.15100
N1252       N  0.59139815  0.03652259  0.16688137     0.74200
O1253       O  0.62290606  0.96839430  0.08124918    -0.39200
O1254       O  0.65305538  0.97650122  0.11570953    -0.39200
O1255       O  0.56670065  0.02983224  0.16125967    -0.39900
O1256       O  0.60251417  0.04890739  0.19042590    -0.39900
C1257       C  0.65802937  0.09717607  0.00870638    -0.12200
C1258       C  0.67327217  0.12024923  0.02681937     0.04800
C1259       C  0.69275679  0.14594336  0.01419687    -0.07500
C1260       C  0.69018127  0.14660615  0.48374029    -0.08300
C1261       C  0.67568730  0.12364014  0.46523658    -0.02800
C1262       C  0.65817333  0.09721547  0.47774964     0.04000
N1263       N  0.64192886  0.07330726  0.45996393     0.66500
H1264       H  0.64299694  0.07737489  0.01816150     0.15400
H1265       H  0.70323655  0.16710284  0.47452283     0.15100
N1266       N  0.70801459  0.17030786  0.03168009     0.74200
O1267       O  0.64485681  0.05256627  0.46279936    -0.39200
O1268       O  0.62057163  0.07038465  0.44721435    -0.39200
O1269       O  0.73334799  0.17941652  0.03711955    -0.39900
O1270       O  0.69789190  0.18547785  0.03663495    -0.39900
C1271       C  0.69710639  0.14428620  0.26539686    -0.12200
C1272       C  0.67466198  0.11851243  0.27411660     0.04800
C1273       C  0.65822621  0.09886331  0.25263864    -0.07500
C1274       C  0.66431932  0.10533953  0.22318785    -0.08300
C1275       C  0.68579548  0.13156762  0.21446698    -0.02800
C1276       C  0.70251343  0.15110668  0.23578202     0.04000
N1277       N  0.72470552  0.17799241  0.22772294     0.66500
H1278       H  0.70935185  0.15986033  0.28158816     0.15400
H1279       H  0.65107985  0.09033471  0.20695047     0.15100
N1280       N  0.63450444  0.07275402  0.26028498     0.74200
O1281       O  0.72104147  0.19838944  0.22830215    -0.39200
O1282       O  0.74903804  0.18222528  0.22574857    -0.39200
O1283       O  0.61053202  0.06947198  0.25798486    -0.39900
O1284       O  0.63704345  0.05179556  0.26330641    -0.39900
C1285       C  0.48753414  0.25824251  0.28742322    -0.12200
C1286       C  0.46353556  0.25956839  0.28249479     0.04800
C1287       C  0.43904309  0.23548431  0.27287965    -0.07500
C1288       C  0.43941373  0.21113947  0.26743053    -0.08300
C1289       C  0.46363604  0.21005826  0.27191715    -0.02800
C1290       C  0.48777440  0.23390187  0.28262759     0.04000
N1291       N  0.51264365  0.23374312  0.28946293     0.66500
H1292       H  0.50635538  0.27617955  0.29552245     0.15400
H1293       H  0.42068094  0.19310093  0.25935503     0.15100
N1294       N  0.41365849  0.23527227  0.26841533     0.74200
O1295       O  0.53290344  0.24480650  0.27209225    -0.39200
O1296       O  0.51624185  0.22758692  0.31494815    -0.39200
O1297       O  0.40568033  0.23592019  0.24281014    -0.39900
O1298       O  0.39661028  0.22825033  0.28913986    -0.39900
C1299       C  0.58570445  0.14812291  0.19099720    -0.12200
C1300       C  0.58296978  0.12293998  0.18208790     0.04800
C1301       C  0.55848400  0.09803424  0.18937690    -0.07500
C1302       C  0.53725681  0.09875639  0.20469063    -0.08300
C1303       C  0.53899532  0.12401023  0.21059504    -0.02800
C1304       C  0.56326669  0.14907758  0.20283286     0.04000
N1305       N  0.56507641  0.17551070  0.20525717     0.66500
H1306       H  0.60443128  0.16746862  0.18572760     0.15400
H1307       H  0.51892005  0.07947919  0.21108900     0.15100
N1308       N  0.55511762  0.07179521  0.18272677     0.74200
O1309       O  0.58733075  0.19631253  0.21422246    -0.39200
O1310       O  0.54783883  0.17957170  0.19163158    -0.39200
O1311       O  0.55771045  0.05825181  0.20326157    -0.39900
O1312       O  0.54056975  0.05890815  0.16079196    -0.39900
C1313       C  0.59062867  0.17929909  0.34305834    -0.12200
C1314       C  0.60576463  0.17152021  0.32492370     0.04800
C1315       C  0.60086206  0.16967170  0.29463717    -0.07500
C1316       C  0.57862506  0.17162345  0.28346591    -0.08300
C1317       C  0.56075884  0.17493894  0.30224455    -0.02800
C1318       C  0.56766154  0.18023641  0.33202966     0.04000
N1319       N  0.55029292  0.18417095  0.35180772     0.66500
H1320       H  0.59420186  0.18104198  0.36627669     0.15400
H1321       H  0.57355011  0.16722596  0.26124140     0.15100
N1322       N  0.61658817  0.16328093  0.27500033     0.74200
O1323       O  0.53035086  0.16341913  0.36410074    -0.39200
O1324       O  0.55831353  0.20814324  0.36150767    -0.39200
O1325       O  0.60567144  0.13927931  0.26416814    -0.39900
O1326       O  0.63823150  0.18284956  0.26355513    -0.39900
C1327       C  0.49420495  0.23849297  0.01456009    -0.12200
C1328       C  0.46981903  0.21295672  0.02003465     0.04800
C1329       C  0.44671576  0.21353697  0.03168358    -0.07500
C1330       C  0.44815912  0.23902518  0.03644044    -0.08300
C1331       C  0.47244030  0.26450799  0.03046553    -0.02800
C1332       C  0.49579693  0.26390149  0.01974123     0.04000
N1333       N  0.52127822  0.28885146  0.01328613     0.66500
H1334       H  0.51235902  0.23893795  0.00579477     0.15400
H1335       H  0.43014450  0.23878358  0.04532755     0.15100
N1336       N  0.42184420  0.18859553  0.03968691     0.74200
O1337       O  0.54099487  0.29812859  0.03148625    -0.39200
O1338       O  0.52602752  0.29800439  0.98750581    -0.39200
O1339       O  0.41846425  0.18054035  0.06586277    -0.39900
O1340       O  0.40121583  0.17844656  0.02262912    -0.39900
C1341       C  0.52594897  0.10348874  0.42794851    -0.12200
C1342       C  0.52957153  0.10463311  0.45837463     0.04800
C1343       C  0.55033295  0.10007457  0.47016947    -0.07500
C1344       C  0.57032173  0.10043581  0.45164883    -0.08300
C1345       C  0.56837096  0.10244778  0.42135841    -0.02800
C1346       C  0.54453069  0.10125298  0.40947238     0.04000
N1347       N  0.53998948  0.09979176  0.37868281     0.66500
H1348       H  0.50926673  0.10541988  0.41841537     0.15400
H1349       H  0.58784249  0.09986511  0.46099099     0.15100
N1350       N  0.55354748  0.09985713  0.00056870     0.74200
O1351       O  0.52764018  0.07651254  0.36611984    -0.39200
O1352       O  0.54979645  0.12169349  0.36376439    -0.39200
O1353       O  0.53815279  0.07620719  0.01165228    -0.39900
O1354       O  0.57393475  0.11800483  0.01509051    -0.39900
C1355       C  0.61031863  0.17933061  0.04848823    -0.12200
C1356       C  0.60992552  0.17608286  0.07897081     0.04800
C1357       C  0.58957276  0.17800567  0.09508880    -0.07500
C1358       C  0.56805335  0.17896973  0.08075185    -0.08300
C1359       C  0.56619786  0.17814963  0.05039911    -0.02800
C1360       C  0.58911807  0.18144999  0.03419522     0.04000
N1361       N  0.59057121  0.18586367  0.00336199     0.66500
H1362       H  0.62623504  0.17877281  0.03568054     0.15400
H1363       H  0.55097818  0.17718902  0.09355753     0.15100
N1364       N  0.58719777  0.17371714  0.12574949     0.74200
O1365       O  0.60209257  0.20668546  0.49042934    -0.39200
O1366       O  0.58690683  0.16253849  0.48643897    -0.39200
O1367       O  0.60038142  0.19440075  0.14231054    -0.39900
O1368       O  0.56606318  0.15221425  0.13534822    -0.39900
C1369       C  0.42995705  0.09922657  0.40759213    -0.12200
C1370       C  0.43817213  0.12573436  0.41834809     0.04800
C1371       C  0.44317810  0.14707314  0.39851781    -0.07500
C1372       C  0.44171535  0.14210095  0.36846870    -0.08300
C1373       C  0.43615755  0.11634662  0.35774307    -0.02800
C1374       C  0.42937383  0.09450753  0.37753120     0.04000
N1375       N  0.42286685  0.06774281  0.36749507     0.66500
H1376       H  0.42619661  0.08268213  0.42257145     0.15400
H1377       H  0.44688391  0.15905428  0.35350741     0.15100
N1378       N  0.45094297  0.17421174  0.40855889     0.74200
O1379       O  0.44179339  0.06187344  0.36633501    -0.39200
O1380       O  0.39778579  0.04851915  0.36583953    -0.39200
O1381       O  0.47607691  0.19338465  0.40749600    -0.39900
O1382       O  0.43237690  0.18024211  0.41261090    -0.39900
C1383       C  0.43888443  0.14035432  0.11808149    -0.12200
C1384       C  0.43887239  0.11668845  0.10813261     0.04800
C1385       C  0.43575550  0.09638432  0.12848198    -0.07500
C1386       C  0.43494118  0.10106785  0.15831518    -0.08300
C1387       C  0.43751866  0.12588077  0.16831626    -0.02800
C1388       C  0.43846841  0.14519038  0.14797268     0.04000
N1389       N  0.43940441  0.16992086  0.15734683     0.66500
H1390       H  0.44090993  0.15597786  0.10269969     0.15400
H1391       H  0.43398253  0.08595837  0.17379890     0.15100
N1392       N  0.43382905  0.07114015  0.11924358     0.74200
O1393       O  0.46231330  0.19254655  0.15771063    -0.39200
O1394       O  0.41707755  0.17020368  0.15920817    -0.39200
O1395       O  0.45387670  0.06736645  0.12394075    -0.39900
O1396       O  0.41044797  0.05077921  0.11218240    -0.39900
C1397       C  0.26564501  0.77124522  0.48161029    -0.12200
C1398       C  0.26363681  0.79443353  0.48925909     0.04800
C1399       C  0.23703326  0.79163659  0.48863538    -0.07500
C1400       C  0.21353950  0.76618566  0.48082026    -0.08300
C1401       C  0.21557098  0.74289330  0.47360233    -0.02800
C1402       C  0.24222536  0.74585177  0.47392339     0.04000
N1403       N  0.24614943  0.72339075  0.46638932     0.66500
H1404       H  0.28569179  0.77269444  0.48143570     0.15400
H1405       H  0.19344919  0.76463910  0.48092881     0.15100
N1406       N  0.23319238  0.81408172  0.49652124     0.74200
O1407       O  0.25296160  0.72148678  0.44069274    -0.39200
O1408       O  0.24794927  0.70882017  0.48631532    -0.39200
O1409       O  0.22701903  0.82601907  0.47708827    -0.39900
O1410       O  0.22914440  0.81616101  0.02433038    -0.39900
C1411       C  0.41238292  0.99303449  0.98521210    -0.12200
C1412       C  0.38487377  0.97584539  0.99460064     0.04800
C1413       C  0.37091771  0.98843468  0.00719043    -0.07500
C1414       C  0.38556759  0.01723491  0.01254485    -0.08300
C1415       C  0.41359349  0.03388156  0.00463002    -0.02800
C1416       C  0.42654929  0.02158396  0.98967242     0.04000
N1417       N  0.44417481  0.02432970  0.54851969     0.66500
H1418       H  0.42327829  0.98430320  0.97425134     0.15400
H1419       H  0.37510311  0.02653639  0.02326155     0.15100
N1420       N  0.34207893  0.97259107  0.01449947     0.74200
O1421       O  0.47421629  0.03891417  0.99161068    -0.39200
O1422       O  0.46689511  0.02689083  0.54048787    -0.39200
O1423       O  0.33453164  0.97327584  0.04020617    -0.39900
O1424       O  0.35531609  0.98108935  0.44512242    -0.39900
C1425       C  0.43367960  0.90537169  0.08124344    -0.12200
C1426       C  0.43523754  0.90425735  0.05074106     0.04800
C1427       C  0.45977416  0.90736159  0.03835459    -0.07500
C1428       C  0.47905949  0.90539182  0.05626643    -0.08300
C1429       C  0.47585967  0.90341069  0.08665314    -0.02800
C1430       C  0.45449346  0.90632455  0.09916403     0.04000
N1431       N  0.45302934  0.90917306  0.12995998     0.66500
H1432       H  0.41579991  0.90461277  0.09123536     0.15400
H1433       H  0.49638251  0.90497561  0.04637306     0.15100
N1434       N  0.46509673  0.91180592  0.00774843     0.74200
O1435       O  0.46455848  0.93302298  0.14124680    -0.39200
O1436       O  0.44168398  0.88804605  0.14611095    -0.39200
O1437       O  0.47107765  0.92786097  0.49324108    -0.39900
O1438       O  0.46389785  0.88598087  0.49077134    -0.39900
C1439       C  0.39626362  0.83213677  0.42258421    -0.12200
C1440       C  0.39442797  0.83219343  0.45307921     0.04800
C1441       C  0.41131406  0.82524299  0.46978910    -0.07500
C1442       C  0.43372638  0.82505879  0.45648659    -0.08300
C1443       C  0.43776896  0.82872564  0.42626235    -0.02800
C1444       C  0.41682932  0.82886814  0.40906577     0.04000
N1445       N  0.41715114  0.82748117  0.37796474     0.66500
H1446       H  0.38238935  0.83574775  0.40924085     0.15400
H1447       H  0.44881932  0.82350745  0.46997601     0.15100
N1448       N  0.41407197  0.82559063  0.00564568     0.74200
O1449       O  0.40896187  0.80432452  0.36597122    -0.39200
O1450       O  0.41880592  0.84708836  0.36290034    -0.39200
O1451       O  0.39796556  0.80182334  0.01610784    -0.39900
O1452       O  0.43141906  0.84452251  0.02219160    -0.39900
C1453       C  0.23912520  0.79504357  0.24112786    -0.12200
C1454       C  0.26390799  0.79439820  0.24283001     0.04800
C1455       C  0.26225260  0.76855445  0.23901844    -0.07500
C1456       C  0.23658942  0.74458207  0.23343617    -0.08300
C1457       C  0.21182797  0.74520343  0.23142685    -0.02800
C1458       C  0.21335879  0.77093919  0.23569260     0.04000
N1459       N  0.18900038  0.77305598  0.23527508     0.66500
H1460       H  0.23956328  0.81439623  0.24429866     0.15400
H1461       H  0.23627792  0.72528709  0.23030765     0.15100
N1462       N  0.28638507  0.76606514  0.24048835     0.74200
O1463       O  0.17604970  0.77007924  0.25872066    -0.39200
O1464       O  0.18404990  0.78354821  0.21338175    -0.39200
O1465       O  0.29091061  0.75601844  0.26304800    -0.39900
O1466       O  0.30019698  0.76918063  0.21766832    -0.39900
C1467       C  0.37382685  0.98894505  0.24155674    -0.12200
C1468       C  0.38656606  0.97441121  0.25182355     0.04800
C1469       C  0.41174218  0.98913962  0.26767770    -0.07500
C1470       C  0.42386615  0.01757332  0.27206154    -0.08300
C1471       C  0.41217499  0.03248679  0.26045849    -0.02800
C1472       C  0.38655801  0.01785143  0.24545004     0.04000
N1473       N  0.37412571  0.03211582  0.23249353     0.66500
H1474       H  0.35457444  0.97806648  0.22929914     0.15400
H1475       H  0.44315172  0.02819891  0.28432362     0.15100
N1476       N  0.42550110  0.97575380  0.27973121     0.74200
O1477       O  0.38184385  0.04281240  0.20753365    -0.39200
O1478       O  0.35236566  0.02970714  0.24342795    -0.39200
O1479       O  0.44215251  0.97271473  0.26394364    -0.39900
O1480       O  0.42770920  0.97511727  0.30707326    -0.39900
C1481       C  0.45543550  0.89764422  0.28446783    -0.12200
C1482       C  0.43423017  0.89974926  0.29819239     0.04800
C1483       C  0.43596882  0.90481441  0.32840401    -0.07500
C1484       C  0.45667890  0.90411379  0.34477686    -0.08300
C1485       C  0.47491577  0.89708333  0.33170663    -0.02800
C1486       C  0.47568401  0.89609481  0.30094915     0.04000
N1487       N  0.49621691  0.89273965  0.28613844     0.66500
H1488       H  0.45489999  0.89467345  0.26106937     0.15400
H1489       H  0.45656141  0.90633774  0.36823587     0.15100
N1490       N  0.41609085  0.90926429  0.34303442     0.74200
O1491       O  0.49297253  0.86887466  0.28363567    -0.39200
O1492       O  0.51399717  0.91220970  0.27044713    -0.39200
O1493       O  0.39576372  0.88918078  0.35568222    -0.39900
O1494       O  0.42257089  0.93369025  0.34956228    -0.39900
C1495       C  0.33885814  0.91070248  0.38329946    -0.12200
C1496       C  0.32537269  0.88771990  0.40191536     0.04800
C1497       C  0.30706722  0.86129834  0.39009960    -0.07500
C1498       C  0.30523967  0.85770015  0.35986945    -0.08300
C1499       C  0.32064992  0.88029262  0.34123820    -0.02800
C1500       C  0.33612732  0.90725433  0.35303900     0.04000
N1501       N  0.35142727  0.93091173  0.33467051     0.66500
H1502       H  0.35269403  0.93115038  0.39225593     0.15400
H1503       H  0.29285471  0.83696760  0.35096550     0.15100
N1504       N  0.29243792  0.83750426  0.40844801     0.74200
O1505       O  0.34140001  0.94588284  0.32804407    -0.39200
O1506       O  0.37326120  0.93491956  0.32235270    -0.39200
O1507       O  0.26700883  0.82793570  0.41357147    -0.39900
O1508       O  0.30331693  0.82325138  0.41486064    -0.39900
C1509       C  0.34083624  0.91038034  0.13451043    -0.12200
C1510       C  0.32750980  0.88727370  0.15282646     0.04800
C1511       C  0.30944683  0.86087258  0.14095043    -0.07500
C1512       C  0.30701651  0.85763397  0.11068836    -0.08300
C1513       C  0.32200068  0.88051855  0.09213643    -0.02800
C1514       C  0.33807251  0.90728802  0.10427590     0.04000
N1515       N  0.35394090  0.93118017  0.08640224     0.66500
H1516       H  0.35472865  0.93072466  0.14367781     0.15400
H1517       H  0.29456842  0.83697099  0.10163572     0.15100
N1518       N  0.29576274  0.83686994  0.15922496     0.74200
O1519       O  0.34875119  0.95056013  0.08710437    -0.39200
O1520       O  0.37683645  0.93588402  0.07617974    -0.39200
O1521       O  0.27193468  0.82922460  0.16916965    -0.39900
O1522       O  0.30852857  0.82496623  0.16771896    -0.39900
C1523       C  0.41919163  0.82951724  0.16073925    -0.12200
C1524       C  0.44044171  0.83069401  0.17817603     0.04800
C1525       C  0.43604993  0.82652900  0.20840345    -0.07500
C1526       C  0.41386749  0.82750661  0.22131034    -0.08300
C1527       C  0.39565194  0.83204832  0.20412297    -0.02800
C1528       C  0.39683372  0.83025525  0.17350068     0.04000
N1529       N  0.37633248  0.83064015  0.15511992     0.66500
H1530       H  0.42152780  0.83131676  0.13724642     0.15400
H1531       H  0.41250898  0.82728472  0.24488437     0.15100
N1532       N  0.45408874  0.82146941  0.22606111     0.74200
O1533       O  0.38119605  0.85300894  0.14326354    -0.39200
O1534       O  0.35598963  0.80798349  0.14636602    -0.39200
O1535       O  0.47790596  0.84117655  0.23283797    -0.39900
O1536       O  0.44815233  0.79681172  0.23041559    -0.39900
Fe1537     Fe  0.32049938  0.88472972  0.74689497     1.65800
Fe1538     Fe  0.38369293  0.89899730  0.72481939     1.73200
Fe1539     Fe  0.34761538  0.84686005  0.77191666     1.54400
O1540       O  0.32571791  0.85303382  0.80462860    -0.81600
O1541       O  0.37944986  0.86436545  0.70463621    -0.79900
O1542       O  0.32238353  0.88945158  0.79130969    -0.84100
O1543       O  0.28976146  0.84280854  0.74977908    -0.79000
O1544       O  0.38375693  0.87374187  0.79372845    -0.80800
O1545       O  0.36212449  0.90327105  0.69025319    -0.83500
C1546       C  0.28939294  0.81990788  0.74831546     0.97300
C1547       C  0.32235684  0.87324411  0.81062539     1.04700
O1548       O  0.35053593  0.87680362  0.74779918    -1.12500
O1549       O  0.38993878  0.93464637  0.74395133    -0.74900
O1550       O  0.34720601  0.92785615  0.74415692    -0.78400
O1551       O  0.31121803  0.81860003  0.75166591    -0.79100
C1552       C  0.37340354  0.94355598  0.74725763     0.96200
O1553       O  0.31734902  0.88028829  0.70238165    -0.77100
O1554       O  0.41005262  0.89759053  0.75593181    -0.82300
C1555       C  0.37913728  0.84399308  0.71709581     0.98800
C1556       C  0.40731764  0.88929607  0.78219702     1.04700
O1557       O  0.36993344  0.83660928  0.74292967    -0.77900
C1558       C  0.33650364  0.89100685  0.68351971     1.03000
Fe1559     Fe  0.32129228  0.88568214  0.99735653     1.65800
Fe1560     Fe  0.38452145  0.89998011  0.97362513     1.73200
Fe1561     Fe  0.34830342  0.84863527  0.52095871     1.54400
O1562       O  0.32674194  0.85459464  0.55401234    -0.81600
O1563       O  0.38239945  0.86495104  0.95668581    -0.79900
O1564       O  0.32335204  0.89101893  0.54126928    -0.84100
O1565       O  0.29147228  0.84346027  0.00107041    -0.79000
O1566       O  0.38499462  0.87606255  0.54187003    -0.80800
O1567       O  0.36097285  0.89951787  0.93833100    -0.83500
C1568       C  0.29213923  0.82116383  0.99851891     0.97300
C1569       C  0.32400893  0.87505813  0.56044246     1.04700
O1570       O  0.35208838  0.87860066  0.99788208    -1.12500
O1571       O  0.38953917  0.93674554  0.98810772    -0.74900
O1572       O  0.34660956  0.92871060  0.99323352    -0.78400
O1573       O  0.31178652  0.82011312  0.50094563    -0.79100
C1574       C  0.37209737  0.94490287  0.49449604     0.96200
O1575       O  0.31685974  0.88056208  0.95279393    -0.77100
O1576       O  0.41068579  0.90109899  0.50416338    -0.82300
C1577       C  0.38307114  0.84585389  0.97082769     0.98800
C1578       C  0.40842189  0.89272057  0.53041134     1.04700
O1579       O  0.37348614  0.83933206  0.99645562    -0.77900
C1580       C  0.33520212  0.88915494  0.93300466     1.03000
Fe1581     Fe  0.43566600  0.12093418  0.51378234     1.65800
Fe1582     Fe  0.48764264  0.11119320  0.53712503     1.73200
Fe1583     Fe  0.49960227  0.15994814  0.98562045     1.54400
O1584       O  0.47033397  0.15357764  0.95414517    -0.81600
O1585       O  0.52047241  0.14805047  0.55187715    -0.79900
O1586       O  0.43033220  0.11755360  0.96859745    -0.84100
O1587       O  0.44747358  0.16319866  0.51144013    -0.79000
O1588       O  0.50755171  0.13235724  0.96386361    -0.80800
O1589       O  0.46534086  0.11085989  0.57320786    -0.83500
C1590       C  0.47048636  0.18646783  0.51135108     0.97300
C1591       C  0.44605139  0.13361072  0.94887141     1.04700
O1592       O  0.47438843  0.13032341  0.51243296    -1.12500
O1593       O  0.45612339  0.07284015  0.52480680    -0.74900
O1594       O  0.41975504  0.07793233  0.51661540    -0.78400
O1595       O  0.49361805  0.18819302  0.50563981    -0.79100
C1596       C  0.43050460  0.06273009  0.51951110     0.96200
O1597       O  0.43630887  0.12476205  0.55861657    -0.77100
O1598       O  0.51130673  0.10992057  0.00213547    -0.82300
C1599       C  0.54009607  0.16638313  0.53656434     0.98800
C1600       C  0.51537679  0.11671973  0.97531913     1.04700
O1601       O  0.53606145  0.17150727  0.51068582    -0.77900
C1602       C  0.44766129  0.11806770  0.57848192     1.03000
Fe1603     Fe  0.42977935  0.11960280  0.76367543     1.65800
Fe1604     Fe  0.48148840  0.10990001  0.78653056     1.73200
Fe1605     Fe  0.49496121  0.16109095  0.74030193     1.54400
O1606       O  0.46557047  0.15606631  0.70903993    -0.81600
O1607       O  0.51145847  0.14553488  0.80670161    -0.79900
O1608       O  0.42830444  0.11540789  0.71905255    -0.84100
O1609       O  0.44055157  0.16160828  0.76174660    -0.79000
O1610       O  0.50362692  0.13584467  0.71663143    -0.80800
O1611       O  0.45518165  0.10417446  0.82137778    -0.83500
C1612       C  0.46337614  0.18440611  0.76653536     0.97300
C1613       C  0.44402844  0.13380262  0.70091714     1.04700
O1614       O  0.46856684  0.12996360  0.76370140    -1.12500
O1615       O  0.45263297  0.07344886  0.76807755    -0.74900
O1616       O  0.41460195  0.07658720  0.76638516    -0.78400
O1617       O  0.48682762  0.18641698  0.76397183    -0.79100
C1618       C  0.42651897  0.06233406  0.76566341     0.96200
O1619       O  0.42998231  0.12306082  0.80813526    -0.77100
O1620       O  0.50977463  0.11387300  0.75398348    -0.82300
C1621       C  0.53207249  0.16374551  0.79251202     0.98800
C1622       C  0.51485222  0.12330509  0.72789921     1.04700
O1623       O  0.52917722  0.17080632  0.76698106    -0.77900
C1624       C  0.43957978  0.11388031  0.82736762     1.03000
Fe1625     Fe  0.68484262  0.12232194  0.61987767     1.65800
Fe1626     Fe  0.61951111  0.10715273  0.60486678     1.73200
Fe1627     Fe  0.66248034  0.16402910  0.64496054     1.54400
O1628       O  0.68557793  0.15773158  0.67701179    -0.81600
O1629       O  0.61977136  0.13990962  0.58390780    -0.79900
O1630       O  0.68541172  0.11915810  0.66448607    -0.84100
O1631       O  0.71751738  0.16396109  0.62089356    -0.79000
O1632       O  0.62806344  0.14181976  0.67048690    -0.80800
O1633       O  0.63819723  0.10256723  0.56724521    -0.83500
C1634       C  0.71883168  0.18722160  0.61829514     0.97300
C1635       C  0.68706281  0.13638814  0.68351689     1.04700
O1636       O  0.65541581  0.13119149  0.62320981    -1.12500
O1637       O  0.61548167  0.07197778  0.62441460    -0.74900
O1638       O  0.65778374  0.07883285  0.61834443    -0.78400
O1639       O  0.69742833  0.18923189  0.62110062    -0.79100
C1640       C  0.63214934  0.06297545  0.62436564     0.96200
O1641       O  0.68411875  0.12563382  0.57533390    -0.77100
O1642       O  0.59695970  0.11008574  0.63988183    -0.82300
C1643       C  0.62503022  0.16330659  0.59353002     0.98800
C1644       C  0.60327177  0.12381885  0.66368449     1.04700
O1645       O  0.63939470  0.17408942  0.61655278    -0.77900
C1646       C  0.66330783  0.11492748  0.55819466     1.03000
Fe1647     Fe  0.68386936  0.11955815  0.87047147     1.65800
Fe1648     Fe  0.62008733  0.10319169  0.84620130     1.73200
Fe1649     Fe  0.65492613  0.15634649  0.89290080     1.54400
O1650       O  0.67690987  0.15121343  0.92637960    -0.81600
O1651       O  0.62085732  0.13659023  0.82660953    -0.79900
O1652       O  0.67970697  0.11412935  0.91538570    -0.84100
O1653       O  0.71378790  0.16186162  0.87409279    -0.79000
O1654       O  0.61881358  0.12938488  0.91430960    -0.80800
O1655       O  0.64356886  0.10267937  0.81155232    -0.83500
C1656       C  0.71343102  0.18426870  0.87088109     0.97300
C1657       C  0.67887208  0.13048465  0.93394432     1.04700
O1658       O  0.65290544  0.12636233  0.86958931    -1.12500
O1659       O  0.61610583  0.06762303  0.86334166    -0.74900
O1660       O  0.65940946  0.07637244  0.86645184    -0.78400
O1661       O  0.69112639  0.18486628  0.87278530    -0.79100
C1662       C  0.63335138  0.05947011  0.86611486     0.96200
O1663       O  0.68811597  0.12422481  0.82559648    -0.77100
O1664       O  0.59267771  0.10158842  0.87812419    -0.82300
C1665       C  0.62156673  0.15724027  0.83864914     0.98800
C1666       C  0.59536909  0.11154537  0.90370903     1.04700
O1667       O  0.63237927  0.16582189  0.86367429    -0.77900
C1668       C  0.66939651  0.11437360  0.80586880     1.03000
Fe1669     Fe  0.56976546  0.88431945  0.63775895     1.65800
Fe1670     Fe  0.51924975  0.89559046  0.66225900     1.73200
Fe1671     Fe  0.50381282  0.84498173  0.61315800     1.54400
O1672       O  0.53241043  0.85083131  0.58134486    -0.81600
O1673       O  0.48551055  0.86014122  0.67857653    -0.79900
O1674       O  0.57157388  0.88917209  0.59345796    -0.84100
O1675       O  0.55809470  0.84222172  0.63506965    -0.79000
O1676       O  0.49530770  0.87220012  0.59157615    -0.80800
O1677       O  0.54159969  0.89450645  0.69791617    -0.83500
C1678       C  0.53523242  0.81909328  0.63752101     0.97300
C1679       C  0.55542041  0.87199527  0.57464863     1.04700
O1680       O  0.53098594  0.87510940  0.63795899    -1.12500
O1681       O  0.55134927  0.93357032  0.64894838    -0.74900
O1682       O  0.58692495  0.92769167  0.63977206    -0.78400
O1683       O  0.51168773  0.81716610  0.63428797    -0.79100
C1684       C  0.57664530  0.94327062  0.64242103     0.96200
O1685       O  0.56995178  0.88005518  0.68241339    -0.77100
O1686       O  0.49534454  0.89807901  0.62870635    -0.82300
C1687       C  0.46580991  0.84054933  0.66446217     0.98800
C1688       C  0.48949510  0.88955350  0.60240959     1.04700
O1689       O  0.46938129  0.83360608  0.63935069    -0.77900
C1690       C  0.55829082  0.88581014  0.70259642     1.03000
Fe1691     Fe  0.57144814  0.88298788  0.88826935     1.65800
Fe1692     Fe  0.52156259  0.89592820  0.90993107     1.73200
Fe1693     Fe  0.50552430  0.84295486  0.86473029     1.54400
O1694       O  0.53358475  0.84705910  0.83273890    -0.81600
O1695       O  0.49044479  0.86139309  0.93046404    -0.79900
O1696       O  0.57299569  0.88554597  0.84360150    -0.84100
O1697       O  0.55941509  0.84052104  0.88817971    -0.79000
O1698       O  0.49780003  0.86926120  0.84109096    -0.80800
O1699       O  0.54745094  0.90143098  0.94507990    -0.83500
C1700       C  0.53632959  0.81744214  0.89040169     0.97300
C1701       C  0.55638842  0.86817322  0.82515173     1.04700
O1702       O  0.53294647  0.87390534  0.88803908    -1.12500
O1703       O  0.55114479  0.93142124  0.89071037    -0.74900
O1704       O  0.58788637  0.92627592  0.88788214    -0.78400
O1705       O  0.51303693  0.81597738  0.88744769    -0.79100
C1706       C  0.57656083  0.94100345  0.88542814     0.96200
O1707       O  0.57199775  0.88166643  0.93302340    -0.77100
O1708       O  0.49448648  0.89372206  0.87724728    -0.82300
C1709       C  0.46976809  0.84184012  0.91731741     0.98800
C1710       C  0.49023410  0.88548367  0.85083578     1.04700
O1711       O  0.47206625  0.83399956  0.89203381    -0.77900
C1712       C  0.56305817  0.89189178  0.95166522     1.03000
Fe1713     Fe  0.68799050  0.57305810  0.67692025     1.65800
Fe1714     Fe  0.62493385  0.52376195  0.70137678     1.73200
Fe1715     Fe  0.65976004  0.50700487  0.65454970     1.54400
O1716       O  0.68228594  0.53495953  0.62153740    -0.81600
O1717       O  0.62739517  0.49213875  0.72145881    -0.79900
O1718       O  0.68320810  0.57398455  0.63226887    -0.84100
O1719       O  0.71819401  0.56159891  0.67296373    -0.79000
O1720       O  0.62402675  0.49792627  0.63275298    -0.80800
O1721       O  0.64862281  0.54946321  0.73554447    -0.83500
C1722       C  0.71782557  0.53892488  0.67743126     0.97300
C1723       C  0.68328951  0.55722650  0.61381321     1.04700
O1724       O  0.65755443  0.53456343  0.67795820    -1.12500
O1725       O  0.61956351  0.55395142  0.68277322    -0.74900
O1726       O  0.66257050  0.59029870  0.68076447    -0.78400
O1727       O  0.69559342  0.51543671  0.67573540    -0.79100
C1728       C  0.63638979  0.57956017  0.67859268     0.96200
O1729       O  0.69304327  0.57313810  0.72157616    -0.77100
O1730       O  0.59758249  0.49653048  0.66974892    -0.82300
C1731       C  0.62690015  0.47186771  0.70869980     0.98800
C1732       C  0.60046964  0.49099927  0.64350008     1.04700
O1733       O  0.63661185  0.47414903  0.68317787    -0.77900
C1734       C  0.67454235  0.56399556  0.74130001     1.03000
Fe1735     Fe  0.69297776  0.57312019  0.92794219     1.65800
Fe1736     Fe  0.62997210  0.52079649  0.94710596     1.73200
Fe1737     Fe  0.66950285  0.50899363  0.90182918     1.54400
O1738       O  0.69345514  0.53956230  0.87114048    -0.81600
O1739       O  0.63473775  0.49044807  0.96694715    -0.79900
O1740       O  0.69031440  0.57606480  0.88344595    -0.84100
O1741       O  0.72490285  0.56352422  0.92548900    -0.79000
O1742       O  0.63542652  0.49941910  0.87755772    -0.80800
O1743       O  0.65002493  0.54610865  0.98290856    -0.83500
C1744       C  0.72508508  0.54100162  0.92952923     0.97300
C1745       C  0.69189673  0.56072276  0.86427633     1.04700
O1746       O  0.66406399  0.53430202  0.92582070    -1.12500
O1747       O  0.62313235  0.55006090  0.92840722    -0.74900
O1748       O  0.66511496  0.58796865  0.93087018    -0.78400
O1749       O  0.70354520  0.51742285  0.92576074    -0.79100
C1750       C  0.63893570  0.57618127  0.92660629     0.96200
O1751       O  0.69530713  0.57076940  0.97255318    -0.77100
O1752       O  0.60617022  0.49345235  0.91361995    -0.82300
C1753       C  0.63350976  0.47053501  0.95272144     0.98800
C1754       C  0.61115367  0.48872937  0.88779545     1.04700
O1755       O  0.64474265  0.47417334  0.92779433    -0.77900
C1756       C  0.67541909  0.56069874  0.99066985     1.03000
Fe1757     Fe  0.43796541  0.32004722  0.53568440     1.65800
Fe1758     Fe  0.48619977  0.38363215  0.51209045     1.73200
Fe1759     Fe  0.50462101  0.34867112  0.55743331     1.54400
O1760       O  0.47771227  0.32606777  0.59130052    -0.81600
O1761       O  0.51594855  0.38008483  0.49030313    -0.79900
O1762       O  0.43713208  0.32201984  0.58030984    -0.84100
O1763       O  0.45004575  0.29002452  0.53674829    -0.79000
O1764       O  0.51382620  0.38422981  0.57962540    -0.80800
O1765       O  0.45803458  0.36029165  0.97717979    -0.83500
C1766       C  0.47299689  0.29052339  0.53348676     0.97300
C1767       C  0.45431713  0.32266546  0.59880246     1.04700
O1768       O  0.47621135  0.35068191  0.53491650    -1.12500
O1769       O  0.45739176  0.38913734  0.53273532    -0.74900
O1770       O  0.42105660  0.34614802  0.53497157    -0.78400
O1771       O  0.49637808  0.31278210  0.53630906    -0.79100
C1772       C  0.43192167  0.37237411  0.53752248     0.96200
O1773       O  0.43684010  0.31601795  0.99103405    -0.77100
O1774       O  0.51508055  0.41060711  0.54260884    -0.82300
C1775       C  0.53710912  0.38144545  0.50199996     0.98800
C1776       C  0.52067302  0.40776094  0.56885753     1.04700
O1777       O  0.53630714  0.37217201  0.52757918    -0.77900
C1778       C  0.44406768  0.33449227  0.97148931     1.03000
Fe1779     Fe  0.43472689  0.31973428  0.78529423     1.65800
Fe1780     Fe  0.48677165  0.38236372  0.76349914     1.73200
Fe1781     Fe  0.49939894  0.34439084  0.81063734     1.54400
O1782       O  0.46952781  0.32141875  0.84214476    -0.81600
O1783       O  0.51762526  0.37804650  0.74455913    -0.79900
O1784       O  0.43187447  0.32295251  0.82978864    -0.84100
O1785       O  0.44381659  0.28825091  0.79035508    -0.79000
O1786       O  0.50947128  0.37964041  0.83340864    -0.80800
O1787       O  0.46182058  0.36041534  0.72800662    -0.83500
C1788       C  0.46588022  0.28733850  0.78702970     0.97300
C1789       C  0.44706419  0.32053053  0.84883602     1.04700
O1790       O  0.47362593  0.34902700  0.78647174    -1.12500
O1791       O  0.45690270  0.38905317  0.78031130    -0.74900
O1792       O  0.41946921  0.34675458  0.77991200    -0.78400
O1793       O  0.48988247  0.30896001  0.78854120    -0.79100
C1794       C  0.43083409  0.37295547  0.78230401     0.96200
O1795       O  0.43738466  0.31574002  0.74107601    -0.77100
O1796       O  0.51412266  0.40795350  0.79661754    -0.82300
C1797       C  0.53738314  0.37832341  0.75833873     0.98800
C1798       C  0.51945996  0.40374837  0.82263810     1.04700
O1799       O  0.53396786  0.36783160  0.78371123    -0.77900
C1800       C  0.44800411  0.33463051  0.72184999     1.03000
Fe1801     Fe  0.56874463  0.68649136  0.65690396     1.65800
Fe1802     Fe  0.51927434  0.62330154  0.63301423     1.73200
Fe1803     Fe  0.50316212  0.65722499  0.68214527     1.54400
O1804       O  0.53175604  0.67886241  0.71481126    -0.81600
O1805       O  0.48794043  0.62692879  0.61433563    -0.79900
O1806       O  0.57196124  0.68335489  0.70139632    -0.84100
O1807       O  0.55682310  0.71632140  0.66135243    -0.79000
O1808       O  0.49481919  0.62117518  0.70265089    -0.80800
O1809       O  0.54442351  0.64636069  0.59862231    -0.83500
C1810       C  0.53386501  0.71608949  0.66070632     0.97300
C1811       C  0.55561072  0.68265031  0.72085648     1.04700
O1812       O  0.53044414  0.65573090  0.65720605    -1.12500
O1813       O  0.54994780  0.61757352  0.64954873    -0.74900
O1814       O  0.58580154  0.66088015  0.65249465    -0.78400
O1815       O  0.51056626  0.69380171  0.66355771    -0.79100
C1816       C  0.57573479  0.63469603  0.65239396     0.96200
O1817       O  0.56742082  0.69079592  0.61228015    -0.77100
O1818       O  0.49219820  0.59562285  0.66429776    -0.82300
C1819       C  0.46776832  0.62645514  0.62725840     0.98800
C1820       C  0.48710132  0.59791177  0.69085481     1.04700
O1821       O  0.46976374  0.63486565  0.65340370    -0.77900
C1822       C  0.55887220  0.67209723  0.59281969     1.03000
Fe1823     Fe  0.57074583  0.68394152  0.90778232     1.65800
Fe1824     Fe  0.52007556  0.62128047  0.88214300     1.73200
Fe1825     Fe  0.50483118  0.65625640  0.93111640     1.54400
O1826       O  0.53289323  0.67814955  0.96407080    -0.81600
O1827       O  0.48761403  0.62397047  0.86419866    -0.79900
O1828       O  0.57262383  0.68079594  0.95238337    -0.84100
O1829       O  0.55994750  0.71471598  0.91160630    -0.79000
O1830       O  0.49533737  0.61988432  0.95165343    -0.80800
O1831       O  0.54422605  0.64491676  0.84762786    -0.83500
C1832       C  0.53728605  0.71494401  0.90971448     0.97300
C1833       C  0.55644403  0.68175674  0.97096154     1.04700
O1834       O  0.53195428  0.65375196  0.90684622    -1.12500
O1835       O  0.55115938  0.61506330  0.89700812    -0.74900
O1836       O  0.58712439  0.65758874  0.90428807    -0.78400
O1837       O  0.51366488  0.69281053  0.91157091    -0.79100
C1838       C  0.57680228  0.63144533  0.90200808     0.96200
O1839       O  0.57077750  0.68868027  0.86323179    -0.77100
O1840       O  0.49427130  0.59386962  0.91422375    -0.82300
C1841       C  0.46802825  0.62425909  0.87759066     0.98800
C1842       C  0.48870628  0.59652514  0.94051061     1.04700
O1843       O  0.47125063  0.63412968  0.90310386    -0.77900
C1844       C  0.56036045  0.67069458  0.84306056     1.03000
Fe1845     Fe  0.31945693  0.43603884  0.54761158     1.65800
Fe1846     Fe  0.38277458  0.48722601  0.57019513     1.73200
Fe1847     Fe  0.34748298  0.50078282  0.51964461     1.54400
O1848       O  0.32383789  0.47465065  0.99216687    -0.81600
O1849       O  0.37988310  0.51977463  0.58631379    -0.79900
O1850       O  0.32125866  0.43197180  0.50312742    -0.84100
O1851       O  0.28934958  0.44772318  0.54405868    -0.79000
O1852       O  0.38339048  0.50859860  0.49896167    -0.80800
O1853       O  0.36048819  0.46420510  0.60616696    -0.83500
C1854       C  0.28949648  0.47061828  0.54425785     0.97300
C1855       C  0.32079331  0.45142638  0.98512320     1.04700
O1856       O  0.34985135  0.47460365  0.54604450    -1.12500
O1857       O  0.38826093  0.45588589  0.55626453    -0.74900
O1858       O  0.34551870  0.41940692  0.55173849    -0.78400
O1859       O  0.31143735  0.49377549  0.53922523    -0.79100
C1860       C  0.37178469  0.43004142  0.55304890     0.96200
O1861       O  0.31620330  0.43760291  0.59228565    -0.77100
O1862       O  0.40969384  0.51197873  0.53721404    -0.82300
C1863       C  0.38009885  0.53909800  0.57175576     0.98800
C1864       C  0.40695590  0.51606621  0.51038069     1.04700
O1865       O  0.37071582  0.53548524  0.54591097    -0.77900
C1866       C  0.33491751  0.44807112  0.61185461     1.03000
Fe1867     Fe  0.31602293  0.43342079  0.79792211     1.65800
Fe1868     Fe  0.37909250  0.48499844  0.82091659     1.73200
Fe1869     Fe  0.34087928  0.49910300  0.77523936     1.54400
O1870       O  0.31844669  0.47089599  0.74242048    -0.81600
O1871       O  0.37580624  0.51604145  0.84091907    -0.79900
O1872       O  0.31863599  0.43236932  0.75302645    -0.84100
O1873       O  0.28419369  0.44272235  0.79570967    -0.79000
O1874       O  0.37651177  0.51010220  0.75270278    -0.80800
O1875       O  0.35775308  0.45981472  0.85606058    -0.83500
C1876       C  0.28330978  0.46485226  0.79881920     0.97300
C1877       C  0.31752676  0.44875087  0.73464116     1.04700
O1878       O  0.34536766  0.47248365  0.79827021    -1.12500
O1879       O  0.38537675  0.45533463  0.80313786    -0.74900
O1880       O  0.34310564  0.41804609  0.79981854    -0.78400
O1881       O  0.30500979  0.48876868  0.79691447    -0.79100
C1882       C  0.36941677  0.42950002  0.79925296     0.96200
O1883       O  0.31309028  0.43353056  0.84294862    -0.77100
O1884       O  0.40465183  0.51185848  0.78820054    -0.82300
C1885       C  0.37484511  0.53559846  0.82823557     0.98800
C1886       C  0.40054418  0.51711951  0.76219800     1.04700
O1887       O  0.36365770  0.53249535  0.80331402    -0.77900
C1888       C  0.33220549  0.44397437  0.86221306     1.03000
Fe1889     Fe  0.12291475  0.43682587  0.57621206     1.65800
Fe1890     Fe  0.11261190  0.48881912  0.55531536     1.73200
Fe1891     Fe  0.16410976  0.50161939  0.60263255     1.54400
O1892       O  0.15649083  0.47195586  0.63462173    -0.81600
O1893       O  0.14847760  0.52001918  0.53687266    -0.79900
O1894       O  0.11827820  0.43333862  0.62062993    -0.84100
O1895       O  0.16452401  0.44653591  0.57814391    -0.79000
O1896       O  0.13916506  0.51198840  0.62542372    -0.80800
O1897       O  0.10821731  0.46424066  0.51917984    -0.83500
C1898       C  0.18789842  0.46910566  0.57589998     0.97300
C1899       C  0.13494079  0.44869721  0.64032622     1.04700
O1900       O  0.13305204  0.47568114  0.57798042    -1.12500
O1901       O  0.07507502  0.45861767  0.57125949    -0.74900
O1902       O  0.08021624  0.42180582  0.57366139    -0.78400
O1903       O  0.19051766  0.49263738  0.58074150    -0.79100
C1904       C  0.06508274  0.43271096  0.57382210     0.96200
O1905       O  0.12621069  0.43807946  0.53162372    -0.77100
O1906       O  0.11450916  0.51521101  0.58894445    -0.82300
C1907       C  0.16912326  0.53945020  0.55016064     0.98800
C1908       C  0.12355390  0.52031318  0.61521063     1.04700
O1909       O  0.17627535  0.53607619  0.57549098    -0.77900
C1910       C  0.11697471  0.44794915  0.51274850     1.03000
Fe1911     Fe  0.11569136  0.42997346  0.82650482     1.65800
Fe1912     Fe  0.10502926  0.48007509  0.80154109     1.73200
Fe1913     Fe  0.15702758  0.49615718  0.84796559     1.54400
O1914       O  0.15318721  0.46805523  0.87992673    -0.81600
O1915       O  0.14146042  0.50826783  0.78200279    -0.79900
O1916       O  0.11270592  0.42990846  0.87151327    -0.84100
O1917       O  0.15809825  0.44141086  0.82762190    -0.79000
O1918       O  0.13125493  0.50467003  0.87139115    -0.80800
O1919       O  0.09948709  0.45361510  0.76733142    -0.83500
C1920       C  0.18082604  0.46423522  0.82248635     0.97300
C1921       C  0.13148561  0.44653564  0.88901859     1.04700
O1922       O  0.12533308  0.46834977  0.82559069    -1.12500
O1923       O  0.06793472  0.45161868  0.81928160    -0.74900
O1924       O  0.07230565  0.41450725  0.82493711    -0.78400
O1925       O  0.18250175  0.48761481  0.82453325    -0.79100
C1926       C  0.05747259  0.42589118  0.82409449     0.96200
O1927       O  0.11850687  0.42896366  0.78158807    -0.77100
O1928       O  0.10815874  0.50841069  0.83343261    -0.82300
C1929       C  0.15773725  0.53053609  0.79506922     0.98800
C1930       C  0.11638491  0.51335940  0.85997291     1.04700
O1931       O  0.16596370  0.53000266  0.82073843    -0.77900
C1932       C  0.10973980  0.43851222  0.76178168     1.03000
Fe1933     Fe  0.11979371  0.68838165  0.71931351     1.65800
Fe1934     Fe  0.10422588  0.62516485  0.74082651     1.73200
Fe1935     Fe  0.15928866  0.66229088  0.69845755     1.54400
O1936       O  0.15622351  0.68711477  0.66639790    -0.81600
O1937       O  0.13796293  0.63072212  0.76353383    -0.79900
O1938       O  0.11652883  0.68593546  0.67464447    -0.84100
O1939       O  0.16219628  0.71914708  0.71768077    -0.79000
O1940       O  0.13431137  0.62822030  0.67314885    -0.80800
O1941       O  0.09771549  0.64590477  0.77499108    -0.83500
C1942       C  0.18441767  0.71890104  0.72346989     0.97300
C1943       C  0.13473258  0.68719689  0.65728870     1.04700
O1944       O  0.12746395  0.65845603  0.71926697    -1.12500
O1945       O  0.06990865  0.61908160  0.71918440    -0.74900
O1946       O  0.07634486  0.66155691  0.72092357    -0.78400
O1947       O  0.18511418  0.69659065  0.72290541    -0.79100
C1948       C  0.06079345  0.63547603  0.71677062     0.96200
O1949       O  0.12331441  0.69084012  0.76402065    -0.77100
O1950       O  0.10835536  0.60025289  0.70907970    -0.82300
C1951       C  0.15495215  0.62553915  0.75152697     0.98800
C1952       C  0.11858000  0.60411459  0.68343100     1.04700
O1953       O  0.16556214  0.63611758  0.72688031    -0.77900
C1954       C  0.11173122  0.67133003  0.78252294     1.03000
Fe1955     Fe  0.12745042  0.68494561  0.96893128     1.65800
Fe1956     Fe  0.11490674  0.62199548  0.99005285     1.73200
Fe1957     Fe  0.16612631  0.65965048  0.94234558     1.54400
O1958       O  0.15955226  0.68245623  0.91079831    -0.81600
O1959       O  0.14994094  0.62643507  0.50903015    -0.79900
O1960       O  0.12177391  0.68281388  0.92437940    -0.84100
O1961       O  0.16942186  0.71609006  0.96588399    -0.79000
O1962       O  0.13929075  0.62447566  0.91973118    -0.80800
O1963       O  0.11339606  0.64478218  0.52862010    -0.83500
C1964       C  0.19250823  0.71670912  0.96776633     0.97300
C1965       C  0.13813905  0.68384275  0.90474666     1.04700
O1966       O  0.13615011  0.65552601  0.96734378    -1.12500
O1967       O  0.07815700  0.61558096  0.97349800    -0.74900
O1968       O  0.08434754  0.65794949  0.97194807    -0.78400
O1969       O  0.19410536  0.69516648  0.96387458    -0.79100
C1970       C  0.06881866  0.63170507  0.96984750     0.96200
O1971       O  0.13159790  0.68882149  0.51429188    -0.77100
O1972       O  0.11476932  0.59666725  0.95642377    -0.82300
C1973       C  0.17025531  0.62646186  0.99471827     0.98800
C1974       C  0.12278595  0.60051246  0.92989556     1.04700
O1975       O  0.17713184  0.63649219  0.96917676    -0.77900
C1976       C  0.12341281  0.67044622  0.53404523     1.03000
Fe1977     Fe  0.88301780  0.57362604  0.70777430     1.65800
Fe1978     Fe  0.89456608  0.52436594  0.68384530     1.73200
Fe1979     Fe  0.84368629  0.50754328  0.73129189     1.54400
O1980       O  0.84898464  0.53634550  0.76307605    -0.81600
O1981       O  0.85815279  0.49566525  0.66467745    -0.79900
O1982       O  0.88864583  0.57477338  0.75231398    -0.84100
O1983       O  0.84105695  0.56167823  0.71168552    -0.79000
O1984       O  0.87074807  0.49993920  0.75413547    -0.80800
O1985       O  0.89897451  0.55059413  0.64981484    -0.83500
C1986       C  0.81819875  0.53881423  0.70780919     0.97300
C1987       C  0.87116124  0.55826993  0.77083117     1.04700
O1988       O  0.87411296  0.53546517  0.70781760    -1.12500
O1989       O  0.93118806  0.55336139  0.70159529    -0.74900
O1990       O  0.92622559  0.59024473  0.70317762    -0.78400
O1991       O  0.81643261  0.51528219  0.70927268    -0.79100
C1992       C  0.94143211  0.57934212  0.70327303     0.96200
O1993       O  0.87754955  0.57312370  0.66311449    -0.77100
O1994       O  0.89308728  0.49668388  0.71563957    -0.82300
C1995       C  0.84295114  0.47325482  0.67791234     0.98800
C1996       C  0.88585078  0.49184989  0.74235671     1.04700
O1997       O  0.83480764  0.47354667  0.70371659    -0.77900
C1998       C  0.88759688  0.56462787  0.64375980     1.03000
Fe1999     Fe  0.89208464  0.57353585  0.95657105     1.65800
Fe2000     Fe  0.90007221  0.52014486  0.93588902     1.73200
Fe2001     Fe  0.85019930  0.50922280  0.98332713     1.54400
O2002       O  0.85532506  0.53727561  0.51343979    -0.81600
O2003       O  0.86370017  0.48825892  0.91889269    -0.79900
O2004       O  0.89417432  0.57597479  0.50166163    -0.84100
O2005       O  0.85059757  0.56416118  0.95903328    -0.79000
O2006       O  0.87529414  0.49923049  0.50562799    -0.80800
O2007       O  0.90249899  0.54309178  0.89904697    -0.83500
C2008       C  0.82706611  0.54175781  0.95641864     0.97300
C2009       C  0.87648750  0.56032761  0.52036697     1.04700
O2010       O  0.88098700  0.53440007  0.95840568    -1.12500
O2011       O  0.93802808  0.55054102  0.95037631    -0.74900
O2012       O  0.93485369  0.58833282  0.95331722    -0.78400
O2013       O  0.82425349  0.51797457  0.96024349    -0.79100
C2014       C  0.94918877  0.57656572  0.95311493     0.96200
O2015       O  0.88746142  0.57162613  0.91199441    -0.77100
O2016       O  0.89942118  0.49543561  0.97068245    -0.82300
C2017       C  0.84384758  0.46913524  0.93318024     0.98800
C2018       C  0.89116320  0.49154869  0.99717110     1.04700
O2019       O  0.83756232  0.47342230  0.95839118    -0.77900
C2020       C  0.89408109  0.55973958  0.89284534     1.03000
Fe2021     Fe  0.88802299  0.32065110  0.59804919     1.65800
Fe2022     Fe  0.90507273  0.38390313  0.62125887     1.73200
Fe2023     Fe  0.85080139  0.34929438  0.57652582     1.54400
O2024       O  0.85440216  0.32582480  0.54344726    -0.81600
O2025       O  0.87139901  0.37925596  0.64318517    -0.79900
O2026       O  0.89228098  0.32374241  0.55313711    -0.84100
O2027       O  0.84542713  0.29081723  0.59489877    -0.79000
O2028       O  0.87753946  0.38439715  0.55347042    -0.80800
O2029       O  0.91009279  0.36169215  0.65467616    -0.83500
C2030       C  0.82320213  0.29134783  0.59948546     0.97300
C2031       C  0.87487127  0.32358578  0.53511136     1.04700
O2032       O  0.88148407  0.35137659  0.59840307    -1.12500
O2033       O  0.93934498  0.38942594  0.60021253    -0.74900
O2034       O  0.93164612  0.34634117  0.60110837    -0.78400
O2035       O  0.82294270  0.31387794  0.59859923    -0.79100
C2036       C  0.94766273  0.37240454  0.59736556     0.96200
O2037       O  0.88332798  0.31720512  0.64282318    -0.77100
O2038       O  0.90295106  0.41060277  0.59079632    -0.82300
C2039       C  0.85394699  0.38395639  0.63107154     0.98800
C2040       C  0.89381921  0.40792290  0.56479011     1.04700
O2041       O  0.84406893  0.37426204  0.60588091    -0.77900
C2042       C  0.89507699  0.33630983  0.66178398     1.03000
Fe2043     Fe  0.87959031  0.32012518  0.84749210     1.65800
Fe2044     Fe  0.89508510  0.38384643  0.86865340     1.73200
Fe2045     Fe  0.84111862  0.34674950  0.82311213     1.54400
O2046       O  0.84627474  0.32394166  0.79023540    -0.81600
O2047       O  0.86114266  0.38118262  0.88892218    -0.79900
O2048       O  0.88375024  0.32227117  0.80296369    -0.84100
O2049       O  0.83736948  0.28962036  0.84534911    -0.79000
O2050       O  0.86737938  0.38195679  0.80023541    -0.80800
O2051       O  0.89882090  0.36242045  0.90412173    -0.83500
C2052       C  0.81465444  0.28949385  0.84837839     0.97300
C2053       C  0.86736585  0.32214353  0.78371528     1.04700
O2054       O  0.87186283  0.35023862  0.84664590    -1.12500
O2055       O  0.93048887  0.38909041  0.84948371    -0.74900
O2056       O  0.92296544  0.34617367  0.84950884    -0.78400
O2057       O  0.81331481  0.31124767  0.84500745    -0.79100
C2058       C  0.93893281  0.37220911  0.84599135     0.96200
O2059       O  0.87614603  0.31748850  0.89223310    -0.77100
O2060       O  0.89404347  0.40951849  0.83615771    -0.82300
C2061       C  0.84054487  0.38073552  0.87670757     0.98800
C2062       C  0.88455550  0.40583734  0.81018445     1.04700
O2063       O  0.83197357  0.37022650  0.85152215    -0.77900
C2064       C  0.88709262  0.33683455  0.91098186     1.03000
C2065       C  0.85694434  0.30942050  0.98551118    -0.12200
C2066       C  0.88060930  0.32286655  0.00339420     0.04800
C2067       C  0.90703564  0.33793674  0.99017130    -0.07500
C2068       C  0.90902852  0.34179448  0.95980787    -0.08300
C2069       C  0.88513878  0.32950588  0.94218769    -0.02800
C2070       C  0.85906628  0.31217775  0.95516168     0.04000
N2071       N  0.83422598  0.29953895  0.93804799     0.66500
H2072       H  0.83650785  0.29759037  0.99522452     0.15400
H2073       H  0.92924624  0.35481849  0.95001111     0.15100
N2074       N  0.92954929  0.34499309  0.50673530     0.74200
O2075       O  0.82357988  0.27458030  0.93019249    -0.39200
O2076       O  0.82037727  0.31145886  0.93559432    -0.39200
O2077       O  0.94038269  0.33028939  0.51073468    -0.39900
O2078       O  0.94353384  0.37059808  0.51226743    -0.39900
C2079       C  0.86228479  0.30981867  0.70172760    -0.12200
C2080       C  0.88954108  0.32933205  0.69313035     0.04800
C2081       C  0.90961049  0.34452410  0.71480332    -0.07500
C2082       C  0.90207357  0.34041475  0.74424062    -0.08300
C2083       C  0.87449021  0.32218541  0.75270640    -0.02800
C2084       C  0.85449797  0.30656607  0.73117357     0.04000
N2085       N  0.82619437  0.28767121  0.73874037     0.66500
H2086       H  0.84648002  0.29828036  0.68537303     0.15400
H2087       H  0.91764653  0.35273892  0.76051847     0.15100
N2088       N  0.93759035  0.36466967  0.70730805     0.74200
O2089       O  0.80910302  0.29600440  0.73882111    -0.39200
O2090       O  0.81724215  0.26195814  0.73891952    -0.39200
O2091       O  0.94499910  0.39003014  0.70667671    -0.39900
O2092       O  0.95588253  0.35790671  0.70780235    -0.39900
C2093       C  0.90801570  0.45841399  0.00417846    -0.12200
C2094       C  0.89887159  0.47489332  0.51499390     0.04800
C2095       C  0.89442059  0.47325400  0.54549209    -0.07500
C2096       C  0.89510433  0.45246449  0.56171336    -0.08300
C2097       C  0.89998545  0.43298600  0.54824054    -0.02800
C2098       C  0.90657437  0.43581306  0.51838041     0.04000
N2099       N  0.91744804  0.42046868  0.00644067     0.66500
H2100       H  0.91342000  0.46055342  0.98128006     0.15400
H2101       H  0.88978507  0.45037318  0.58462647     0.15100
N2102       N  0.88806468  0.49174944  0.56024894     0.74200
O2103       O  0.90081222  0.40076457  0.99014120    -0.39200
O2104       O  0.94158094  0.42477407  0.01088298    -0.39200
O2105       O  0.86325165  0.48350987  0.56720183    -0.39900
O2106       O  0.90747303  0.51349329  0.57179374    -0.39900
C2107       C  0.82558721  0.43756159  0.89052567    -0.12200
C2108       C  0.83011334  0.44075233  0.92075453     0.04800
C2109       C  0.82904969  0.41870584  0.93683974    -0.07500
C2110       C  0.82918495  0.39692200  0.92204212    -0.08300
C2111       C  0.82863953  0.39582416  0.89146292    -0.02800
C2112       C  0.82388879  0.41480127  0.87591078     0.04000
N2113       N  0.82045217  0.41307689  0.84496319     0.66500
H2114       H  0.82554199  0.45390358  0.87789454     0.15400
H2115       H  0.83182815  0.38193621  0.93443821     0.15100
N2116       N  0.83106882  0.41964698  0.96793372     0.74200
O2117       O  0.79631625  0.39916335  0.83430950    -0.39200
O2118       O  0.84016052  0.42994675  0.82893876    -0.39200
O2119       O  0.80948584  0.41233432  0.98277676    -0.39900
O2120       O  0.85184239  0.42069264  0.98003789    -0.39900
C2121       C  0.90496848  0.57390940  0.81171255    -0.12200
C2122       C  0.87745072  0.56350048  0.80229509     0.04800
C2123       C  0.85621277  0.55467582  0.82329913    -0.07500
C2124       C  0.86256759  0.55522057  0.85289911    -0.08300
C2125       C  0.88965634  0.56363483  0.86201663    -0.02800
C2126       C  0.91112841  0.57355874  0.84130868     0.04000
N2127       N  0.93914517  0.58304022  0.84993740     0.66500
H2128       H  0.92151829  0.58061135  0.79589523     0.15400
H2129       H  0.84595239  0.54769077  0.86876006     0.15100
N2130       N  0.82798738  0.54440625  0.81493013     0.74200
O2131       O  0.94687751  0.56572392  0.85386615    -0.39200
O2132       O  0.95714211  0.60852431  0.84820283    -0.39200
O2133       O  0.81110563  0.51857516  0.81456135    -0.39900
O2134       O  0.81880534  0.56078134  0.81422378    -0.39900
C2135       C  0.90917007  0.58015588  0.59522632    -0.12200
C2136       C  0.88546354  0.57000402  0.61274246     0.04800
C2137       C  0.85939415  0.56066526  0.59952941    -0.07500
C2138       C  0.85718595  0.55974415  0.56909730    -0.08300
C2139       C  0.88062534  0.56808140  0.55150392    -0.02800
C2140       C  0.90702794  0.57954166  0.56478719     0.04000
N2141       N  0.93143726  0.58796674  0.54783964     0.66500
H2142       H  0.92926960  0.58717790  0.60523047     0.15400
H2143       H  0.83677122  0.55085300  0.55919721     0.15100
N2144       N  0.83460309  0.54912012  0.61653783     0.74200
O2145       O  0.94765796  0.61337205  0.54251931    -0.39200
O2146       O  0.93914597  0.57084943  0.54259087    -0.39200
O2147       O  0.82208001  0.56235667  0.61914466    -0.39900
O2148       O  0.82233551  0.52379920  0.62350420    -0.39900
C2149       C  0.88876531  0.44955230  0.74512316    -0.12200
C2150       C  0.89237314  0.47337440  0.75908100     0.04800
C2151       C  0.89832410  0.47678213  0.78920534    -0.07500
C2152       C  0.89850647  0.45550164  0.80510725    -0.08300
C2153       C  0.89180077  0.43030774  0.79164034    -0.02800
C2154       C  0.88813444  0.42797787  0.76103746     0.04000
N2155       N  0.88244968  0.40336807  0.74587831     0.66500
H2156       H  0.88443853  0.44672523  0.72194679     0.15400
H2157       H  0.90178536  0.45794702  0.82847918     0.15100
N2158       N  0.90358885  0.50138859  0.80405769     0.74200
O2159       O  0.90238492  0.40088778  0.73711565    -0.39200
O2160       O  0.85826631  0.38707439  0.73630270    -0.39200
O2161       O  0.88463142  0.50109984  0.81910036    -0.39900
O2162       O  0.92832258  0.52103127  0.80720395    -0.39900
C2163       C  0.86933193  0.45189253  0.66343598    -0.12200
C2164       C  0.84302850  0.44865176  0.66667337     0.04800
C2165       C  0.81937862  0.42332895  0.65845255    -0.07500
C2166       C  0.82270701  0.40185120  0.64687992    -0.08300
C2167       C  0.84932171  0.40516054  0.64459287    -0.02800
C2168       C  0.87273336  0.43056512  0.65330425     0.04000
N2169       N  0.90047362  0.43570807  0.65085839     0.66500
H2170       H  0.88780317  0.47140326  0.66893197     0.15400
H2171       H  0.80462303  0.38270637  0.63970811     0.15100
N2172       N  0.79227912  0.41969399  0.66019915     0.74200
O2173       O  0.91696661  0.45379039  0.63305669    -0.39200
O2174       O  0.91031463  0.42815985  0.67129048    -0.39200
O2175       O  0.78273354  0.42641263  0.63877424    -0.39900
O2176       O  0.77615466  0.40510500  0.68040205    -0.39900
C2177       C  0.02461035  0.63317523  0.96990693    -0.12200
C2178       C  0.03864711  0.61901663  0.96328550     0.04800
C2179       C  0.02323140  0.59208358  0.95125359    -0.07500
C2180       C  0.99457587  0.57945860  0.94774150    -0.08300
C2181       C  0.98012575  0.59285905  0.95559789    -0.02800
C2182       C  0.99563612  0.62046060  0.96599361     0.04000
N2183       N  0.98244129  0.63573943  0.97315375     0.66500
H2184       H  0.03604219  0.65399380  0.97876017     0.15400
H2185       H  0.98357458  0.55869932  0.93868147     0.15100
N2186       N  0.03629379  0.57715520  0.94203350     0.74200
O2187       O  0.97863155  0.63906289  0.99955485    -0.39200
O2188       O  0.98049168  0.65084284  0.95398532    -0.39200
O2189       O  0.03348435  0.55703126  0.95712233    -0.39900
O2190       O  0.04544199  0.58027591  0.91635705    -0.39900
C2191       C  0.98689742  0.58418395  0.69348528    -0.12200
C2192       C  0.97225748  0.59647041  0.70417857     0.04800
C2193       C  0.98746901  0.62344335  0.71606959    -0.07500
C2194       C  0.01655233  0.63652227  0.71891945    -0.08300
C2195       C  0.03080093  0.62313574  0.71002795    -0.02800
C2196       C  0.01555058  0.59687467  0.69641091     0.04000
N2197       N  0.02852697  0.58226449  0.68579807     0.66500
H2198       H  0.97593339  0.56392009  0.68325540     0.15400
H2199       H  0.02784764  0.65675374  0.72914823     0.15100
N2200       N  0.97379642  0.63739606  0.72633007     0.74200
O2201       O  0.03106247  0.56588472  0.70269991    -0.39200
O2202       O  0.02983679  0.57958759  0.65864105    -0.39200
O2203       O  0.97032731  0.63847598  0.75335511    -0.39900
O2204       O  0.97058657  0.65325054  0.70928947    -0.39900
C2205       C  0.14481893  0.69511157  0.82280363    -0.12200
C2206       C  0.11708891  0.67822724  0.81383905     0.04800
C2207       C  0.09614480  0.66582816  0.83512050    -0.07500
C2208       C  0.10333802  0.66959476  0.86479554    -0.08300
C2209       C  0.13129751  0.68496577  0.87372732    -0.02800
C2210       C  0.15211652  0.69824491  0.85236952     0.04000
N2211       N  0.18082391  0.71442087  0.86024684     0.66500
H2212       H  0.16117820  0.70463558  0.80666914     0.15400
H2213       H  0.08705113  0.65919693  0.88086307     0.15100
N2214       N  0.06755801  0.64930833  0.82697451     0.74200
O2215       O  0.19563463  0.70341958  0.85987864    -0.39200
O2216       O  0.19239914  0.74048731  0.86145578    -0.39200
O2217       O  0.05541829  0.62324651  0.82909384    -0.39900
O2218       O  0.05328719  0.66073470  0.82386659    -0.39900
C2219       C  0.15388068  0.70206991  0.60744043    -0.12200
C2220       C  0.13062027  0.68747442  0.62550622     0.04800
C2221       C  0.10427680  0.67021703  0.61265482    -0.07500
C2222       C  0.10215769  0.66555295  0.58254511    -0.08300
C2223       C  0.12568859  0.67896146  0.56474186    -0.02800
C2224       C  0.15146974  0.69848644  0.57714987     0.04000
N2225       N  0.17567637  0.71355065  0.55949800     0.66500
H2226       H  0.17415712  0.71576657  0.61695293     0.15400
H2227       H  0.08215673  0.65082701  0.57310867     0.15100
N2228       N  0.07982266  0.65566339  0.63004221     0.74200
O2229       O  0.18109898  0.73642247  0.54848911    -0.39200
O2230       O  0.19413916  0.70700852  0.55981450    -0.39200
O2231       O  0.06242397  0.66360281  0.63045825    -0.39900
O2232       O  0.07379060  0.63287006  0.64166954    -0.39900
C2233       C  0.01100503  0.42009039  0.81553968    -0.12200
C2234       C  0.02666721  0.40941043  0.82790480     0.04800
C2235       C  0.01253739  0.38455701  0.84418553    -0.07500
C2236       C  0.98370181  0.37193820  0.84901553    -0.08300
C2237       C  0.96855499  0.38371326  0.83790891    -0.02800
C2238       C  0.98247172  0.40762219  0.82025847     0.04000
N2239       N  0.96786142  0.41938112  0.80650679     0.66500
H2240       H  0.02101633  0.43858144  0.80210076     0.15400
H2241       H  0.97336391  0.35349640  0.86248139     0.15100
N2242       N  0.02725749  0.37267735  0.85725688     0.74200
O2243       O  0.97032336  0.44149764  0.81643015    -0.39200
O2244       O  0.95734023  0.41098758  0.78154029    -0.39200
O2245       O  0.03519753  0.37827309  0.88343908    -0.39900
O2246       O  0.02757857  0.35285038  0.84471717    -0.39900
C2247       C  0.13426249  0.55407093  0.77798096    -0.12200
C2248       C  0.15971797  0.55603425  0.78362237     0.04800
C2249       C  0.18451405  0.58169405  0.77960378    -0.07500
C2250       C  0.18321163  0.60453200  0.76847169    -0.08300
C2251       C  0.15735677  0.60244081  0.76368058    -0.02800
C2252       C  0.13272468  0.57690194  0.76926372     0.04000
N2253       N  0.10569150  0.57353953  0.76636354     0.66500
H2254       H  0.11499416  0.53466660  0.78163229     0.15400
H2255       H  0.20223373  0.62402683  0.76448430     0.15100
N2256       N  0.21084304  0.58484650  0.78663691     0.74200
O2257       O  0.08873029  0.55611321  0.74827114    -0.39200
O2258       O  0.09638069  0.58115492  0.78709494    -0.39200
O2259       O  0.22736666  0.58777482  0.76645516    -0.39900
O2260       O  0.21960693  0.59011139  0.81258693    -0.39900
C2261       C  0.11545372  0.55675370  0.86361491    -0.12200
C2262       C  0.11122011  0.53245061  0.87711824     0.04800
C2263       C  0.10628893  0.52906963  0.90736930    -0.07500
C2264       C  0.10735100  0.55059191  0.92380054    -0.08300
C2265       C  0.11455101  0.57613661  0.91080431    -0.02800
C2266       C  0.11746300  0.57865896  0.88009327     0.04000
N2267       N  0.12371557  0.60369488  0.86535260     0.66500
H2268       H  0.11921522  0.55961372  0.84034699     0.15400
H2269       H  0.10468436  0.54798265  0.94720860     0.15100
N2270       N  0.10121690  0.50432911  0.92187788     0.74200
O2271       O  0.14800493  0.61971307  0.85604718    -0.39200
O2272       O  0.10411336  0.60680670  0.85650240    -0.39200
O2273       O  0.12057253  0.50421732  0.93596911    -0.39900
O2274       O  0.07655574  0.48463049  0.92513772    -0.39900
C2275       C  0.98792362  0.40590111  0.56862083    -0.12200
C2276       C  0.97702966  0.38424220  0.58899088     0.04800
C2277       C  0.99496752  0.37677102  0.60245683    -0.07500
C2278       C  0.02359176  0.39201110  0.59639392    -0.08300
C2279       C  0.03461975  0.41478918  0.57723180    -0.02800
C2280       C  0.01626400  0.42107321  0.56261516     0.04000
N2281       N  0.02588645  0.44241460  0.54104627     0.66500
H2282       H  0.97431907  0.41152436  0.55760664     0.15400
H2283       H  0.03738128  0.38690811  0.60782361     0.15100
N2284       N  0.98492150  0.35544306  0.62404304     0.74200
O2285       O  0.02404030  0.43576017  0.51453912    -0.39200
O2286       O  0.02859984  0.46550373  0.54763450    -0.39200
O2287       O  0.98214465  0.33226328  0.61779701    -0.39900
O2288       O  0.98436724  0.36153522  0.65039630    -0.39900
C2289       C  0.18439989  0.56945189  0.50605076    -0.12200
C2290       C  0.18263220  0.56738383  0.53658770     0.04800
C2291       C  0.18604172  0.59036703  0.55267058    -0.07500
C2292       C  0.18486377  0.61179990  0.53820206    -0.08300
C2293       C  0.18242159  0.61174980  0.50771720    -0.02800
C2294       C  0.18544431  0.59204565  0.49157299     0.04000
N2295       N  0.18598607  0.59157430  0.96181436     0.66500
H2296       H  0.18290688  0.55248991  0.49330436     0.15400
H2297       H  0.18377105  0.62744215  0.55098413     0.15100
N2298       N  0.18761581  0.59082874  0.58378812     0.74200
O2299       O  0.20879829  0.60514388  0.94855605    -0.39200
O2300       O  0.16492461  0.57334299  0.94820286    -0.39200
O2301       O  0.21067537  0.59843818  0.59595260    -0.39900
O2302       O  0.16825473  0.58999608  0.59851862    -0.39900
C2303       C  0.11008715  0.55630512  0.62033717    -0.12200
C2304       C  0.11735616  0.53830347  0.63384959     0.04800
C2305       C  0.12168374  0.54037362  0.66445005    -0.07500
C2306       C  0.11989781  0.56074478  0.68030431    -0.08300
C2307       C  0.11475295  0.57997780  0.66637398    -0.02800
C2308       C  0.10960797  0.57750521  0.63606601     0.04000
N2309       N  0.10475236  0.59684734  0.62071065     0.66500
H2310       H  0.10677141  0.55533791  0.59696578     0.15400
H2311       H  0.12438347  0.56263182  0.70347500     0.15100
N2312       N  0.12895103  0.52272225  0.67976040     0.74200
O2313       O  0.12497374  0.61795139  0.60921130    -0.39200
O2314       O  0.08035649  0.58955113  0.61276028    -0.39200
O2315       O  0.15406026  0.53167046  0.68625863    -0.39900
O2316       O  0.11017098  0.50109794  0.69204057    -0.39900
C2317       C  0.10100989  0.43242740  0.93257322    -0.12200
C2318       C  0.12756058  0.44211444  0.92093080     0.04800
C2319       C  0.15034712  0.45127528  0.94022770    -0.07500
C2320       C  0.14651412  0.45208083  0.97029705    -0.08300
C2321       C  0.12029355  0.44406048  0.98171348    -0.02800
C2322       C  0.09723108  0.43340119  0.96268184     0.04000
N2323       N  0.06987355  0.42351013  0.97352458     0.66500
H2324       H  0.08325928  0.42529597  0.91813916     0.15400
H2325       H  0.16439238  0.46018754  0.98469070     0.15100
N2326       N  0.17759418  0.46016996  0.92961072     0.74200
O2327       O  0.05705727  0.43562435  0.96600955    -0.39200
O2328       O  0.05206983  0.39865945  0.47978058    -0.39200
O2329       O  0.19555725  0.48571750  0.92888974    -0.39900
O2330       O  0.18512556  0.44263082  0.92649154    -0.39900
C2331       C  0.10027315  0.43025343  0.67992832    -0.12200
C2332       C  0.12780036  0.44033759  0.67111472     0.04800
C2333       C  0.14816738  0.44568944  0.69242827    -0.07500
C2334       C  0.14104378  0.44228514  0.72202807    -0.08300
C2335       C  0.11405038  0.43450356  0.73088652    -0.02800
C2336       C  0.09338134  0.42787003  0.70952563     0.04000
N2337       N  0.06560890  0.41983004  0.71748425     0.66500
H2338       H  0.08439351  0.42619039  0.66382293     0.15400
H2339       H  0.15719064  0.44767285  0.73821904     0.15100
N2340       N  0.17631447  0.45543970  0.68443246     0.74200
O2341       O  0.05881155  0.43804783  0.71901593    -0.39200
O2342       O  0.04683746  0.39458230  0.71609742    -0.39200
O2343       O  0.19458111  0.48054252  0.68861307    -0.39900
O2344       O  0.18369760  0.43816289  0.67868631    -0.39900
C2345       C  0.25586191  0.48809983  0.80287399    -0.12200
C2346       C  0.25629239  0.46332375  0.80410416     0.04800
C2347       C  0.23109408  0.43833362  0.80998046    -0.07500
C2348       C  0.20669739  0.43890754  0.81550117    -0.08300
C2349       C  0.20657836  0.46394125  0.81489205    -0.02800
C2350       C  0.23163900  0.48867847  0.80784617     0.04000
N2351       N  0.23312889  0.51482133  0.80539079     0.66500
H2352       H  0.27457252  0.50754324  0.79777907     0.15400
H2353       H  0.18780767  0.41960144  0.82049875     0.15100
N2354       N  0.22977278  0.41221423  0.81058143     0.74200
O2355       O  0.24287785  0.53182557  0.82627524    -0.39200
O2356       O  0.23001349  0.52294495  0.78074078    -0.39200
O2357       O  0.22985157  0.40145869  0.83475708    -0.39900
O2358       O  0.22306955  0.39765577  0.78773709    -0.39900
C2359       C  0.24114246  0.44644560  0.56444162    -0.12200
C2360       C  0.26310588  0.47006794  0.55102635     0.04800
C2361       C  0.25946286  0.49280291  0.54506379    -0.07500
C2362       C  0.23484327  0.49176762  0.55316057    -0.08300
C2363       C  0.21317621  0.46842516  0.56713800    -0.02800
C2364       C  0.21646257  0.44543789  0.57249996     0.04000
N2365       N  0.19562583  0.42142814  0.58744018     0.66500
H2366       H  0.24332490  0.42876599  0.56946839     0.15400
H2367       H  0.23266753  0.50948151  0.54826311     0.15100
N2368       N  0.28024960  0.51701120  0.53031285     0.74200
O2369       O  0.18037712  0.39946057  0.57328180    -0.39200
O2370       O  0.19650074  0.42041331  0.61489074    -0.39200
O2371       O  0.27815451  0.51925327  0.50316357    -0.39900
O2372       O  0.29676477  0.53819424  0.54495148    -0.39900
C2373       C  0.30636865  0.44776401  0.90370391    -0.12200
C2374       C  0.32473184  0.43970693  0.89335608     0.04800
C2375       C  0.33921330  0.43267438  0.91352720    -0.07500
C2376       C  0.33565755  0.43441212  0.94346882    -0.08300
C2377       C  0.31887951  0.44440139  0.95384911    -0.02800
C2378       C  0.30382544  0.45080267  0.93367420     0.04000
N2379       N  0.28676266  0.46141995  0.94313306     0.66500
H2380       H  0.29556218  0.45377979  0.88840759     0.15400
H2381       H  0.34765768  0.42979364  0.95864382     0.15100
N2382       N  0.35858827  0.42497836  0.90396067     0.74200
O2383       O  0.29673135  0.48731475  0.94375910    -0.39200
O2384       O  0.26076892  0.44539610  0.94421998    -0.39200
O2385       O  0.38427898  0.44250673  0.90518957    -0.39900
O2386       O  0.35054859  0.39965332  0.90055121    -0.39900
C2387       C  0.30818251  0.45087412  0.65286363    -0.12200
C2388       C  0.32667405  0.44298934  0.64270504     0.04800
C2389       C  0.33930387  0.43367608  0.66273813    -0.07500
C2390       C  0.33405228  0.43339793  0.69262885    -0.08300
C2391       C  0.31711170  0.44323982  0.70304762    -0.02800
C2392       C  0.30369441  0.45157008  0.68275891     0.04000
N2393       N  0.28635671  0.46187895  0.69213799     0.66500
H2394       H  0.29852688  0.45824664  0.63761531     0.15400
H2395       H  0.34479169  0.42724866  0.70784627     0.15100
N2396       N  0.35797058  0.42505943  0.65311178     0.74200
O2397       O  0.29621345  0.48774064  0.69327130    -0.39200
O2398       O  0.26036143  0.44574724  0.69260505    -0.39200
O2399       O  0.38382966  0.44189687  0.65408228    -0.39900
O2400       O  0.34904032  0.39959035  0.64928198    -0.39900
C2401       C  0.47631488  0.57403822  0.98905617    -0.12200
C2402       C  0.47230255  0.57162674  0.95873976     0.04800
C2403       C  0.44988992  0.54692414  0.94719152    -0.07500
C2404       C  0.42919175  0.52794542  0.96594550    -0.08300
C2405       C  0.43145630  0.53230099  0.99620407    -0.02800
C2406       C  0.45762889  0.55282263  0.50375020     0.04000
N2407       N  0.46366449  0.55390252  0.53419065     0.66500
H2408       H  0.49564970  0.59097997  0.49492365     0.15400
H2409       H  0.41068752  0.51041882  0.95672199     0.15100
N2410       N  0.44691181  0.54151601  0.91655965     0.74200
O2411       O  0.47570572  0.54157822  0.54363579    -0.39200
O2412       O  0.46191555  0.57109081  0.55034493    -0.39200
O2413       O  0.45140520  0.52331735  0.90632215    -0.39900
O2414       O  0.43482664  0.55071382  0.90093712    -0.39900
C2415       C  0.41153231  0.58444494  0.82243049    -0.12200
C2416       C  0.39154454  0.56377878  0.84064265     0.04800
C2417       C  0.39342281  0.56852282  0.87095408    -0.07500
C2418       C  0.41740834  0.59129806  0.88274346    -0.08300
C2419       C  0.43973792  0.60913293  0.86464185    -0.02800
C2420       C  0.43557385  0.60702954  0.83420629     0.04000
N2421       N  0.45625242  0.62675008  0.81496709     0.66500
H2422       H  0.41004734  0.58157398  0.79898099     0.15400
H2423       H  0.41971833  0.59315519  0.90624711     0.15100
N2424       N  0.37180270  0.54970350  0.89003368     0.74200
O2425       O  0.47175594  0.62040898  0.80140760    -0.39200
O2426       O  0.45472274  0.64739455  0.80666540    -0.39200
O2427       O  0.37458891  0.53198739  0.90426803    -0.39900
O2428       O  0.35286592  0.55447437  0.89699741    -0.39900
C2429       C  0.55320123  0.69768416  0.77079658    -0.12200
C2430       C  0.56350310  0.68538155  0.75192716     0.04800
C2431       C  0.57698496  0.67205211  0.76381192    -0.07500
C2432       C  0.57775050  0.66924738  0.79409179    -0.08300
C2433       C  0.56558558  0.67980624  0.81265325    -0.02800
C2434       C  0.55406036  0.69492545  0.80097902     0.04000
N2435       N  0.54005392  0.70450660  0.81923498     0.66500
H2436       H  0.54272119  0.70790211  0.76202313     0.15400
H2437       H  0.58633086  0.65729615  0.80305745     0.15100
N2438       N  0.58732340  0.65872711  0.74559304     0.74200
O2439       O  0.55170236  0.72989164  0.82569899    -0.39200
O2440       O  0.51458500  0.68867706  0.82468158    -0.39200
O2441       O  0.61321659  0.66933391  0.74284379    -0.39900
O2442       O  0.57125962  0.63392254  0.73780200    -0.39900
C2443       C  0.55623118  0.69799448  0.55036301    -0.12200
C2444       C  0.56437367  0.68004207  0.56189429     0.04800
C2445       C  0.57337187  0.66654992  0.54287178    -0.07500
C2446       C  0.57265633  0.66992397  0.51275312    -0.08300
C2447       C  0.56216863  0.68586200  0.50109649    -0.02800
C2448       C  0.55466709  0.70068924  0.52012642     0.04000
N2449       N  0.54465756  0.71785100  0.50910806     0.66500
H2450       H  0.54917248  0.70840359  0.56478678     0.15400
H2451       H  0.57836301  0.65831935  0.49840852     0.15100
N2452       N  0.58170355  0.64801861  0.55374868     0.74200
O2453       O  0.51885554  0.70865362  0.50844175    -0.39200
O2454       O  0.56489433  0.74415555  0.00743375    -0.39200
O2455       O  0.56483413  0.62222054  0.55253358    -0.39900
O2456       O  0.60713151  0.65689373  0.55828478    -0.39900
C2457       C  0.44372322  0.55267263  0.69493167    -0.12200
C2458       C  0.46871620  0.57274858  0.70781195     0.04800
C2459       C  0.47298337  0.57090039  0.73783197    -0.07500
C2460       C  0.45098582  0.55145719  0.75510412    -0.08300
C2461       C  0.42471273  0.53347209  0.74274855    -0.02800
C2462       C  0.42175824  0.53308540  0.71202436     0.04000
N2463       N  0.39647153  0.51343598  0.69778479     0.66500
H2464       H  0.44038372  0.55349488  0.67172829     0.15400
H2465       H  0.45418604  0.55135243  0.77841588     0.15100
N2466       N  0.49968210  0.58822839  0.75083260     0.74200
O2467       O  0.37667130  0.51801406  0.69623854    -0.39200
O2468       O  0.39627069  0.49528240  0.68144233    -0.39200
O2469       O  0.50489943  0.61008703  0.76401540    -0.39900
O2470       O  0.51623168  0.57933446  0.75329029    -0.39900
C2471       C  0.41674694  0.59360984  0.62832663    -0.12200
C2472       C  0.44043989  0.61221626  0.61228838     0.04800
C2473       C  0.43888275  0.61126038  0.58152608    -0.07500
C2474       C  0.41651008  0.58852046  0.56768582    -0.08300
C2475       C  0.39520322  0.56730366  0.58421720    -0.02800
C2476       C  0.39386877  0.57150660  0.61424311     0.04000
N2477       N  0.36975269  0.55283751  0.63057916     0.66500
H2478       H  0.41692333  0.59467045  0.65192518     0.15400
H2479       H  0.41721243  0.58620303  0.54429863     0.15100
N2480       N  0.46054039  0.63252218  0.56424191     0.74200
O2481       O  0.36813721  0.53169724  0.64225006    -0.39200
O2482       O  0.34822370  0.55459358  0.62855667    -0.39200
O2483       O  0.47797388  0.62813535  0.55179016    -0.39900
O2484       O  0.45916499  0.65355427  0.55722508    -0.39900
C2485       C  0.40922534  0.42327868  0.80791985    -0.12200
C2486       C  0.38292042  0.41279543  0.79538240     0.04800
C2487       C  0.37133831  0.38770699  0.77944243    -0.07500
C2488       C  0.38665939  0.37426095  0.77583697    -0.08300
C2489       C  0.41352034  0.38561981  0.78773919    -0.02800
C2490       C  0.42431310  0.41012864  0.80422750     0.04000
N2491       N  0.45051819  0.42173029  0.81833973     0.66500
H2492       H  0.41841072  0.44205578  0.82092631     0.15400
H2493       H  0.37790263  0.35544717  0.76296981     0.15100
N2494       N  0.34486144  0.37640571  0.76558545     0.74200
O2495       O  0.47130686  0.44207934  0.80665087    -0.39200
O2496       O  0.45119382  0.41660945  0.84500894    -0.39200
O2497       O  0.34359971  0.38111568  0.73887091    -0.39900
O2498       O  0.32352929  0.35756635  0.77821478    -0.39900
C2499       C  0.38692154  0.37204460  0.53600783    -0.12200
C2500       C  0.41473973  0.38461281  0.54533192     0.04800
C2501       C  0.42681241  0.41053869  0.55969827    -0.07500
C2502       C  0.41176660  0.42388561  0.56281299    -0.08300
C2503       C  0.38469838  0.41250669  0.55161569    -0.02800
C2504       C  0.37188003  0.38579253  0.53888955     0.04000
N2505       N  0.34432845  0.37298379  0.52732643     0.66500
H2506       H  0.37729000  0.35217307  0.52499269     0.15400
H2507       H  0.42188195  0.44388622  0.57360887     0.15100
N2508       N  0.45469953  0.42417278  0.57068994     0.74200
O2509       O  0.34071094  0.37705637  0.50101745    -0.39200
O2510       O  0.32458990  0.35350948  0.54127002    -0.39200
O2511       O  0.47392201  0.44307647  0.55567881    -0.39900
O2512       O  0.45876541  0.42270177  0.59754288    -0.39900
C2513       C  0.44453052  0.30665881  0.92996869    -0.12200
C2514       C  0.43802565  0.32607203  0.94061756     0.04800
C2515       C  0.42995145  0.33995513  0.92081569    -0.07500
C2516       C  0.43070316  0.33597291  0.89078054    -0.08300
C2517       C  0.43976778  0.31854695  0.88003026    -0.02800
C2518       C  0.44562468  0.30291337  0.89992114     0.04000
N2519       N  0.45326037  0.28359957  0.88996459     0.66500
H2520       H  0.45053758  0.29564325  0.94495682     0.15400
H2521       H  0.42588715  0.34794486  0.87582099     0.15100
N2522       N  0.42142234  0.35853181  0.93088595     0.74200
O2523       O  0.47845841  0.29025455  0.89048129    -0.39200
O2524       O  0.43468561  0.25845650  0.88674343    -0.39200
O2525       O  0.43807342  0.38437020  0.92949532    -0.39900
O2526       O  0.39599016  0.34943079  0.93546970    -0.39900
C2527       C  0.45960094  0.31018379  0.64964187    -0.12200
C2528       C  0.44770701  0.32069667  0.63027606     0.04800
C2529       C  0.43261850  0.33245127  0.64177547    -0.07500
C2530       C  0.43195920  0.33584178  0.67190736    -0.08300
C2531       C  0.44508033  0.32665929  0.69100423    -0.02800
C2532       C  0.45804579  0.31270816  0.67985167     0.04000
N2533       N  0.47148498  0.30284025  0.69879211     0.66500
H2534       H  0.47104063  0.30088005  0.64129372     0.15400
H2535       H  0.42183995  0.34645452  0.68039341     0.15100
N2536       N  0.41979082  0.34316558  0.62317573     0.74200
O2537       O  0.46011536  0.27718427  0.70377624    -0.39200
O2538       O  0.49671304  0.31863961  0.70541085    -0.39200
O2539       O  0.39445594  0.32801060  0.61655757    -0.39900
O2540       O  0.43178575  0.36893604  0.61875164    -0.39900
C2541       C  0.77708079  0.56561960  0.93176454    -0.12200
C2542       C  0.75123845  0.54189075  0.93788364     0.04800
C2543       C  0.75085701  0.51866019  0.95063616    -0.07500
C2544       C  0.77573089  0.51948620  0.95651850    -0.08300
C2545       C  0.80158147  0.54287594  0.94985063    -0.02800
C2546       C  0.80209959  0.56622726  0.93733813     0.04000
N2547       N  0.82763053  0.59018562  0.92881217     0.66500
H2548       H  0.77791446  0.58349757  0.92161693     0.15400
H2549       H  0.77462491  0.50140608  0.96648278     0.15100
N2550       N  0.72543673  0.49386773  0.95786436     0.74200
O2551       O  0.83563117  0.59192854  0.40542421    -0.39200
O2552       O  0.83495076  0.60979695  0.44733630    -0.39200
O2553       O  0.71628562  0.47310228  0.94122643    -0.39900
O2554       O  0.71632206  0.49048125  0.98355700    -0.39900
C2555       C  0.60222132  0.58002863  0.90035289    -0.12200
C2556       C  0.62564692  0.59261363  0.91866763     0.04800
C2557       C  0.63465554  0.61958759  0.92927171    -0.07500
C2558       C  0.61918059  0.63247481  0.92291332    -0.08300
C2559       C  0.59489467  0.61913042  0.90568753    -0.02800
C2560       C  0.58725334  0.59302781  0.89342285     0.04000
N2561       N  0.56481611  0.57968038  0.87303665     0.66500
H2562       H  0.59548827  0.55981894  0.89098558     0.15400
H2563       H  0.62569100  0.65259133  0.93234860     0.15100
N2564       N  0.65853580  0.63360441  0.94770892     0.74200
O2565       O  0.56931478  0.58589976  0.84635785    -0.39200
O2566       O  0.54267084  0.55802304  0.88051263    -0.39200
O2567       O  0.68100472  0.65293843  0.93735650    -0.39900
O2568       O  0.65571168  0.63062730  0.97499242    -0.39900
C2569       C  0.58941983  0.42758318  0.94465081    -0.12200
C2570       C  0.61313152  0.44208857  0.96215681     0.04800
C2571       C  0.61319949  0.43200112  0.99024128    -0.07500
C2572       C  0.58867529  0.40940156  0.00140828    -0.08300
C2573       C  0.56374606  0.39715167  0.98513528    -0.02800
C2574       C  0.56486803  0.40538296  0.95567624     0.04000
N2575       N  0.54074724  0.39328552  0.93733170     0.66500
H2576       H  0.58896168  0.43529598  0.92312654     0.15400
H2577       H  0.58863077  0.40321393  0.02381696     0.15100
N2578       N  0.63762638  0.44514377  0.00800110     0.74200
O2579       O  0.52770245  0.40591532  0.93349097    -0.39200
O2580       O  0.53683973  0.37430019  0.91981797    -0.39200
O2581       O  0.63964798  0.46135532  0.02814867    -0.39900
O2582       O  0.65451868  0.43658408  0.00713899    -0.39900
C2583       C  0.56476617  0.47043145  0.86550070    -0.12200
C2584       C  0.58822459  0.46823010  0.86985930     0.04800
C2585       C  0.58870393  0.44501316  0.85895190    -0.07500
C2586       C  0.56554589  0.42428901  0.84433804    -0.08300
C2587       C  0.54215650  0.42661759  0.83919758    -0.02800
C2588       C  0.54187951  0.45004435  0.84989637     0.04000
N2589       N  0.51799443  0.45260641  0.84769387     0.66500
H2590       H  0.56408688  0.48792249  0.87452627     0.15400
H2591       H  0.56593930  0.40621702  0.83670429     0.15100
N2592       N  0.61208447  0.44159899  0.86352579     0.74200
O2593       O  0.50078402  0.44290386  0.86832706    -0.39200
O2594       O  0.52004013  0.47276634  0.83328727    -0.39200
O2595       O  0.60937974  0.42171925  0.87898215    -0.39900
O2596       O  0.63293318  0.45412672  0.84708838    -0.39900
C2597       C  0.74260861  0.51894492  0.70360146    -0.12200
C2598       C  0.74397605  0.53969258  0.68518035     0.04800
C2599       C  0.77025203  0.56089349  0.67529581    -0.07500
C2600       C  0.79430962  0.56076131  0.68360174    -0.08300
C2601       C  0.79275917  0.53970212  0.70150419    -0.02800
C2602       C  0.76669758  0.51907824  0.71219041     0.04000
N2603       N  0.76461477  0.49912501  0.73310049     0.66500
H2604       H  0.72277876  0.50300711  0.71219605     0.15400
H2605       H  0.81422879  0.57673235  0.67523259     0.15100
N2606       N  0.77279812  0.58184179  0.65558557     0.74200
O2607       O  0.77568341  0.50698916  0.75794809    -0.39200
O2608       O  0.75261646  0.47376367  0.72643081    -0.39200
O2609       O  0.78377016  0.60660475  0.66423715    -0.39900
O2610       O  0.76920025  0.57668240  0.62862766    -0.39900
C2611       C  0.61630977  0.63510661  0.67632656    -0.12200
C2612       C  0.59429639  0.62323969  0.65607895     0.04800
C2613       C  0.58888036  0.59897567  0.64110590    -0.07500
C2614       C  0.60368009  0.58591120  0.64823727    -0.08300
C2615       C  0.62438787  0.59665686  0.66977012    -0.02800
C2616       C  0.63139441  0.62201725  0.68324799     0.04000
N2617       N  0.65218037  0.63356491  0.70551633     0.66500
H2618       H  0.62093945  0.65384653  0.68782002     0.15400
H2619       H  0.59858170  0.56683816  0.63711620     0.15100
N2620       N  0.56883627  0.58758749  0.61806536     0.74200
O2621       O  0.67643469  0.65267695  0.69917516    -0.39200
O2622       O  0.64508688  0.62858958  0.73192939    -0.39200
O2623       O  0.57722894  0.59053580  0.59209210    -0.39900
O2624       O  0.54416942  0.56905573  0.62382855    -0.39900
C2625       C  0.58572230  0.41662327  0.76466092    -0.12200
C2626       C  0.56580028  0.39572429  0.74649878     0.04800
C2627       C  0.57113647  0.39716126  0.71632239    -0.07500
C2628       C  0.59371878  0.42120629  0.70449135    -0.08300
C2629       C  0.61109523  0.44399859  0.72236336    -0.02800
C2630       C  0.60823835  0.44067721  0.75288179     0.04000
N2631       N  0.62722601  0.46210902  0.77210733     0.66500
H2632       H  0.58243383  0.41559283  0.78794505     0.15400
H2633       H  0.59605517  0.42293143  0.68100207     0.15100
N2634       N  0.55342977  0.37469767  0.69740627     0.74200
O2635       O  0.61933193  0.47597402  0.78648893    -0.39200
O2636       O  0.64984008  0.46357706  0.77870907    -0.39200
O2637       O  0.53710090  0.37702473  0.68018359    -0.39900
O2638       O  0.55851030  0.35547637  0.69342598    -0.39900
C2639       C  0.66401419  0.56949052  0.79244029    -0.12200
C2640       C  0.68276432  0.56914528  0.77249168     0.04800
C2641       C  0.70671887  0.56963151  0.78330914    -0.07500
C2642       C  0.71007866  0.56793450  0.81347291    -0.08300
C2643       C  0.69040585  0.56667921  0.83317457    -0.02800
C2644       C  0.66763110  0.56833062  0.82247600     0.04000
N2645       N  0.64646014  0.56602827  0.84159725     0.66500
H2646       H  0.64558227  0.56924206  0.78464665     0.15400
H2647       H  0.72769764  0.56678041  0.82148573     0.15100
N2648       N  0.72676209  0.56979341  0.76402809     0.74200
O2649       O  0.64544854  0.58742899  0.84760029    -0.39200
O2650       O  0.62549431  0.54242533  0.84646429    -0.39200
O2651       O  0.74892690  0.59233868  0.75884440    -0.39900
O2652       O  0.72488436  0.54716978  0.75697119    -0.39900
C2653       C  0.66308595  0.57012895  0.53903977    -0.12200
C2654       C  0.67902910  0.56351144  0.52101505     0.04800
C2655       C  0.69821217  0.55734680  0.53381155    -0.07500
C2656       C  0.70061079  0.55720792  0.56419178    -0.08300
C2657       C  0.68408611  0.56300607  0.58228217    -0.02800
C2658       C  0.66547925  0.56998627  0.56946506     0.04000
N2659       N  0.64691392  0.57422901  0.58693660     0.66500
H2660       H  0.64800581  0.57452205  0.52947454     0.15400
H2661       H  0.71441652  0.55107806  0.57373518     0.15100
N2662       N  0.71279395  0.54780490  0.51646823     0.74200
O2663       O  0.65368511  0.59853141  0.59439260    -0.39200
O2664       O  0.62193544  0.55494308  0.58934051    -0.39200
O2665       O  0.74500330  0.57401572  0.01411983    -0.39900
O2666       O  0.70057811  0.52273013  0.50865335    -0.39900
C2667       C  0.53271231  0.43038587  0.61760038    -0.12200
C2668       C  0.53698509  0.43259880  0.58731490     0.04800
C2669       C  0.55867144  0.45771841  0.57575429    -0.07500
C2670       C  0.57840870  0.47775763  0.59458014    -0.08300
C2671       C  0.57574528  0.47418557  0.62494020    -0.02800
C2672       C  0.55123506  0.45155232  0.63634995     0.04000
N2673       N  0.54525563  0.44938860  0.66682390     0.66500
H2674       H  0.51515755  0.41194377  0.62677838     0.15400
H2675       H  0.59648564  0.49569223  0.58538296     0.15100
N2676       N  0.56179820  0.46267108  0.54505452     0.74200
O2677       O  0.53394020  0.46200222  0.67720713    -0.39200
O2678       O  0.54621114  0.43109943  0.68194546    -0.39200
O2679       O  0.55277493  0.47693839  0.53335680    -0.39900
O2680       O  0.57803272  0.45768924  0.53096703    -0.39900
C2681       C  0.51378595  0.74066237  0.89501390    -0.12200
C2682       C  0.53795843  0.74167599  0.90521845     0.04800
C2683       C  0.56160769  0.76798949  0.91113828    -0.07500
C2684       C  0.56072075  0.79231314  0.90622924    -0.08300
C2685       C  0.53648607  0.79120364  0.89583679    -0.02800
C2686       C  0.51276892  0.76477571  0.89035528     0.04000
N2687       N  0.48752300  0.76181373  0.87917593     0.66500
H2688       H  0.49536056  0.72087389  0.89013893     0.15400
H2689       H  0.57906292  0.81218483  0.91101323     0.15100
N2690       N  0.58634982  0.77047574  0.92320062     0.74200
O2691       O  0.48411369  0.76186687  0.85196190    -0.39200
O2692       O  0.46689620  0.75356480  0.89584371    -0.39200
O2693       O  0.60733519  0.77832753  0.90718632    -0.39900
O2694       O  0.58902803  0.77036412  0.95052444    -0.39900
C2695       C  0.55716547  0.76474141  0.64170258    -0.12200
C2696       C  0.53445190  0.74276566  0.65613001     0.04800
C2697       C  0.51267229  0.74673498  0.66551166    -0.07500
C2698       C  0.51349227  0.77166864  0.65934100    -0.08300
C2699       C  0.53587738  0.79337342  0.64427047    -0.02800
C2700       C  0.55809675  0.78978630  0.63579376     0.04000
N2701       N  0.58116869  0.81075660  0.61983362     0.66500
H2702       H  0.57413124  0.76229594  0.63427172     0.15400
H2703       H  0.49653367  0.77414476  0.66674267     0.15100
N2704       N  0.49004926  0.72616981  0.68235694     0.74200
O2705       O  0.60369220  0.82650482  0.63299541    -0.39200
O2706       O  0.58101265  0.80942492  0.59237786    -0.39200
O2707       O  0.49069526  0.72853956  0.70975150    -0.39900
O2708       O  0.46735973  0.70967776  0.66987192    -0.39900
C2709       C  0.57446287  0.90426005  0.75209301    -0.12200
C2710       C  0.56350306  0.88164201  0.73305861     0.04800
C2711       C  0.55392250  0.85480800  0.74423349    -0.07500
C2712       C  0.55308981  0.85076232  0.77447088    -0.08300
C2713       C  0.56268279  0.87329890  0.79371717    -0.02800
C2714       C  0.57468186  0.90039553  0.78218062     0.04000
N2715       N  0.58433529  0.92392927  0.80080911     0.66500
H2716       H  0.58176436  0.92492405  0.74363293     0.15400
H2717       H  0.54406136  0.82985852  0.78295110     0.15100
N2718       N  0.54319953  0.83130639  0.72529037     0.74200
O2719       O  0.61004395  0.93965345  0.80523768    -0.39200
O2720       O  0.56763388  0.93127284  0.80912284    -0.39200
O2721       O  0.55945809  0.82410919  0.71508270    -0.39900
O2722       O  0.51729871  0.81493737  0.72336180    -0.39900
C2723       C  0.56853344  0.90386914  0.53327723    -0.12200
C2724       C  0.56222365  0.87782935  0.54373367     0.04800
C2725       C  0.55829694  0.85697062  0.52395101    -0.07500
C2726       C  0.55942412  0.86346099  0.99386276    -0.08300
C2727       C  0.56841193  0.88994056  0.98266557    -0.02800
C2728       C  0.57821858  0.91266321  0.00186607     0.04000
N2729       N  0.58841528  0.94014787  0.99115941     0.66500
H2730       H  0.57062753  0.91962898  0.54832579     0.15400
H2731       H  0.55175519  0.84585173  0.97924706     0.15100
N2732       N  0.55136351  0.83001320  0.53383191     0.74200
O2733       O  0.57252910  0.94993082  0.99071888    -0.39200
O2734       O  0.61428341  0.95639874  0.98875269    -0.39200
O2735       O  0.52619728  0.81088473  0.53461384    -0.39900
O2736       O  0.57009687  0.82388620  0.53515767    -0.39900
C2737       C  0.74175701  0.23579993  0.87415409    -0.12200
C2738       C  0.73984463  0.21084380  0.86557200     0.04800
C2739       C  0.76302376  0.21205662  0.85193243    -0.07500
C2740       C  0.78708722  0.23779755  0.84683278    -0.08300
C2741       C  0.78884974  0.26277656  0.85506025    -0.02800
C2742       C  0.76582705  0.26152213  0.86917399     0.04000
N2743       N  0.76670838  0.28597642  0.87954477     0.66500
H2744       H  0.72445023  0.23541567  0.88509070     0.15400
H2745       H  0.80438145  0.23818794  0.83586417     0.15100
N2746       N  0.76223717  0.18751839  0.84208371     0.74200
O2747       O  0.75844847  0.29841555  0.86312101    -0.39200
O2748       O  0.76873554  0.29071576  0.90659212    -0.39200
O2749       O  0.75945461  0.18191504  0.81521004    -0.39900
O2750       O  0.77058125  0.17536717  0.85882953    -0.39900
C2751       C  0.59489309  0.01182635  0.85687541    -0.12200
C2752       C  0.62170521  0.02897216  0.86814431     0.04800
C2753       C  0.63521068  0.01637718  0.88186011    -0.07500
C2754       C  0.62074604  0.98739114  0.88607408    -0.08300
C2755       C  0.59300614  0.97067948  0.87682043    -0.02800
C2756       C  0.58041870  0.98325485  0.86119949     0.04000
N2757       N  0.55258388  0.96765326  0.85011244     0.66500
H2758       H  0.58440295  0.02076122  0.84528711     0.15400
H2759       H  0.63085137  0.97811741  0.89774903     0.15100
N2760       N  0.66300886  0.03256636  0.89263228     0.74200
O2761       O  0.53272103  0.96292810  0.86671527    -0.39200
O2762       O  0.54872776  0.96672867  0.82290081    -0.39200
O2763       O  0.66724350  0.03515648  0.91978661    -0.39900
O2764       O  0.68298815  0.03815394  0.87583440    -0.39900
C2765       C  0.74849430  0.23866837  0.62120593    -0.12200
C2766       C  0.74604121  0.21329863  0.61323317     0.04800
C2767       C  0.76959630  0.21384982  0.60132860    -0.07500
C2768       C  0.79439193  0.23935436  0.59714144    -0.08300
C2769       C  0.79668695  0.26470170  0.60502313    -0.02800
C2770       C  0.77332157  0.26399485  0.61756499     0.04000
N2771       N  0.77461906  0.28864806  0.62790247     0.66500
H2772       H  0.73107915  0.23895011  0.63102877     0.15400
H2773       H  0.81196550  0.23923442  0.58752852     0.15100
N2774       N  0.76884025  0.18890297  0.59312972     0.74200
O2775       O  0.76549259  0.30069946  0.61207403    -0.39200
O2776       O  0.77930127  0.29483359  0.65458490    -0.39200
O2777       O  0.76961395  0.18385922  0.56646707    -0.39900
O2778       O  0.77457643  0.17612662  0.61196123    -0.39900
C2779       C  0.62798416  0.01677167  0.61360975    -0.12200
C2780       C  0.62094557  0.03289025  0.63106112     0.04800
C2781       C  0.60102103  0.01923499  0.65316719    -0.07500
C2782       C  0.58833499  0.99053315  0.65711522    -0.08300
C2783       C  0.59419475  0.97412971  0.63899052    -0.02800
C2784       C  0.61446064  0.98760034  0.61701279     0.04000
N2785       N  0.61911671  0.97186651  0.59581994     0.66500
H2786       H  0.64262810  0.02656028  0.59593916     0.15400
H2787       H  0.57288696  0.98082173  0.67412713     0.15100
N2788       N  0.59181721  0.03377496  0.67080542     0.74200
O2789       O  0.60433781  0.96415065  0.57305430    -0.39200
O2790       O  0.64168969  0.97197023  0.59616630    -0.39200
O2791       O  0.56671428  0.02713116  0.66882823    -0.39900
O2792       O  0.60552120  0.04625736  0.69330408    -0.39900
C2793       C  0.65484837  0.09452866  0.50818456    -0.12200
C2794       C  0.66860378  0.11775239  0.52644969     0.04800
C2795       C  0.68667564  0.14396078  0.51398700    -0.07500
C2796       C  0.69554712  0.14839239  0.98383263    -0.08300
C2797       C  0.67944888  0.12558010  0.96557686    -0.02800
C2798       C  0.66099323  0.09957218  0.97830087     0.04000
N2799       N  0.64332615  0.07595322  0.96073055     0.66500
H2800       H  0.64078517  0.07434050  0.51752996     0.15400
H2801       H  0.70951732  0.16856899  0.97439071     0.15100
N2802       N  0.69952248  0.16853650  0.53143678     0.74200
O2803       O  0.64524763  0.05456262  0.96272426    -0.39200
O2804       O  0.62190186  0.07404262  0.94922283    -0.39200
O2805       O  0.72563090  0.18233602  0.53378887    -0.39900
O2806       O  0.68566729  0.17963744  0.53851186    -0.39900
C2807       C  0.69993626  0.14342045  0.76526503    -0.12200
C2808       C  0.67755908  0.11788216  0.77476967     0.04800
C2809       C  0.66116805  0.09757063  0.75378994    -0.07500
C2810       C  0.66653926  0.10349881  0.72411415    -0.08300
C2811       C  0.68740824  0.12969619  0.71460231    -0.02800
C2812       C  0.70477872  0.14956334  0.73539286     0.04000
N2813       N  0.72731133  0.17595861  0.72652122     0.66500
H2814       H  0.71270302  0.15927535  0.78102703     0.15400
H2815       H  0.65307268  0.08809784  0.70832639     0.15100
N2816       N  0.63828979  0.07117156  0.76216688     0.74200
O2817       O  0.72532554  0.19726819  0.72909005    -0.39200
O2818       O  0.75078560  0.17872265  0.72184813    -0.39200
O2819       O  0.61399855  0.06723777  0.76147736    -0.39900
O2820       O  0.64156412  0.05055678  0.76364382    -0.39900
C2821       C  0.48706638  0.25812562  0.78972829    -0.12200
C2822       C  0.46388968  0.26026477  0.78256281     0.04800
C2823       C  0.43972366  0.23660493  0.77167109    -0.07500
C2824       C  0.43961054  0.21181312  0.76738176    -0.08300
C2825       C  0.46313394  0.20997347  0.77391310    -0.02800
C2826       C  0.48691137  0.23345602  0.78576602     0.04000
N2827       N  0.51114175  0.23272180  0.79423495     0.66500
H2828       H  0.50559785  0.27574968  0.79876774     0.15400
H2829       H  0.42120931  0.19414121  0.75822888     0.15100
N2830       N  0.41543225  0.23750679  0.76399885     0.74200
O2831       O  0.53178368  0.24260567  0.77736502    -0.39200
O2832       O  0.51405296  0.22777775  0.82045929    -0.39200
O2833       O  0.41017189  0.23894531  0.73748527    -0.39900
O2834       O  0.39656946  0.23073543  0.78269790    -0.39900
C2835       C  0.58323854  0.14722650  0.69061484    -0.12200
C2836       C  0.58107944  0.12208292  0.68264608     0.04800
C2837       C  0.55707613  0.09706737  0.69073949    -0.07500
C2838       C  0.53572665  0.09759809  0.70609347    -0.08300
C2839       C  0.53696463  0.12273977  0.71139336    -0.02800
C2840       C  0.56076546  0.14782796  0.70284018     0.04000
N2841       N  0.56206652  0.17397496  0.70523801     0.66500
H2842       H  0.60152888  0.16668686  0.68461577     0.15400
H2843       H  0.51778855  0.07828816  0.71313126     0.15100
N2844       N  0.55459194  0.07101439  0.68508395     0.74200
O2845       O  0.58272939  0.19414089  0.71748759    -0.39200
O2846       O  0.54666977  0.17874490  0.68906873    -0.39200
O2847       O  0.55781255  0.05834059  0.70609786    -0.39900
O2848       O  0.54102452  0.05751502  0.66292013    -0.39900
C2849       C  0.59175981  0.17806075  0.84276183    -0.12200
C2850       C  0.60600792  0.16917567  0.82467958     0.04800
C2851       C  0.59948907  0.16548497  0.79464748    -0.07500
C2852       C  0.57687402  0.16707919  0.78420554    -0.08300
C2853       C  0.56025332  0.17208037  0.80302490    -0.02800
C2854       C  0.56850641  0.17880265  0.83233814     0.04000
N2855       N  0.55230488  0.18423599  0.85224966     0.66500
H2856       H  0.59646122  0.18117612  0.86586094     0.15400
H2857       H  0.57063048  0.16149394  0.76182476     0.15100
N2858       N  0.61424056  0.15804845  0.77480084     0.74200
O2859       O  0.53402413  0.16473468  0.86752478    -0.39200
O2860       O  0.55991903  0.20898625  0.85867038    -0.39200
O2861       O  0.60239239  0.13386912  0.76426387    -0.39900
O2862       O  0.63619163  0.17692742  0.76311160    -0.39900
C2863       C  0.49314741  0.23819430  0.50774274    -0.12200
C2864       C  0.47053263  0.21279779  0.51730060     0.04800
C2865       C  0.44872180  0.21338646  0.53217790    -0.07500
C2866       C  0.44976779  0.23871203  0.53670313    -0.08300
C2867       C  0.47237119  0.26403790  0.52710313    -0.02800
C2868       C  0.49427723  0.26349569  0.51245109     0.04000
N2869       N  0.51750326  0.28832272  0.50129774     0.66500
H2870       H  0.51009862  0.23850731  0.49610504     0.15400
H2871       H  0.43294959  0.23855440  0.54846220     0.15100
N2872       N  0.42589750  0.18871234  0.54407852     0.74200
O2873       O  0.54024785  0.29960108  0.51507630    -0.39200
O2874       O  0.51703552  0.29536709  0.47524080    -0.39200
O2875       O  0.42544500  0.18412666  0.57108140    -0.39900
O2876       O  0.40382894  0.17537094  0.52936537    -0.39900
C2877       C  0.52830794  0.10621441  0.92680903    -0.12200
C2878       C  0.53143013  0.10768831  0.95732087     0.04800
C2879       C  0.55210162  0.10332950  0.96980659    -0.07500
C2880       C  0.57212832  0.10302930  0.95186255    -0.08300
C2881       C  0.57044780  0.10416988  0.92142058    -0.02800
C2882       C  0.54685608  0.10313965  0.90895640     0.04000
N2883       N  0.54210444  0.10014178  0.87820244     0.66500
H2884       H  0.51168896  0.10791422  0.91674732     0.15400
H2885       H  0.58942529  0.10244963  0.96180431     0.15100
N2886       N  0.55199235  0.09595876  0.50076114     0.74200
O2887       O  0.53052488  0.07633673  0.86679779    -0.39200
O2888       O  0.55050213  0.12123236  0.86223260    -0.39200
O2889       O  0.53574503  0.07240909  0.51162676    -0.39900
O2890       O  0.57301908  0.11320712  0.51519756    -0.39900
C2891       C  0.61124945  0.17813078  0.54801443    -0.12200
C2892       C  0.61114544  0.17657547  0.57866038     0.04800
C2893       C  0.59212770  0.18114616  0.59415941    -0.07500
C2894       C  0.57109785  0.18256712  0.57921911    -0.08300
C2895       C  0.56854853  0.17963854  0.54896432    -0.02800
C2896       C  0.59064649  0.18072864  0.53308480     0.04000
N2897       N  0.59161196  0.18300210  0.50198869     0.66500
H2898       H  0.62627318  0.17563392  0.53565281     0.15400
H2899       H  0.55464776  0.18248116  0.59169452     0.15100
N2900       N  0.58999849  0.17852801  0.62503880     0.74200
O2901       O  0.60060722  0.21020243  0.99366195    -0.39200
O2902       O  0.58615163  0.16657751  0.98607166    -0.39200
O2903       O  0.60433203  0.19977212  0.64056120    -0.39900
O2904       O  0.56842294  0.15817917  0.63561706    -0.39900
C2905       C  0.42669376  0.10040704  0.90813623    -0.12200
C2906       C  0.43716962  0.12759095  0.91823630     0.04800
C2907       C  0.44390082  0.14906028  0.89801217    -0.07500
C2908       C  0.44223597  0.14348471  0.86816036    -0.08300
C2909       C  0.43452827  0.11689003  0.85814946    -0.02800
C2910       C  0.42568325  0.09497743  0.87825650     0.04000
N2911       N  0.41648676  0.06736567  0.86872635     0.66500
H2912       H  0.42140815  0.08370612  0.92348928     0.15400
H2913       H  0.44885170  0.16044269  0.85280868     0.15100
N2914       N  0.45359367  0.17680861  0.90747841     0.74200
O2915       O  0.43305595  0.05840421  0.86960834    -0.39200
O2916       O  0.39081027  0.05044404  0.86560000    -0.39200
O2917       O  0.47913719  0.19474504  0.90592504    -0.39900
O2918       O  0.43632017  0.18451932  0.91178065    -0.39900
C2919       C  0.44393968  0.14470979  0.61943400    -0.12200
C2920       C  0.44115107  0.11986415  0.60921566     0.04800
C2921       C  0.43509629  0.09833766  0.62916209    -0.07500
C2922       C  0.43368244  0.10259104  0.65898741    -0.08300
C2923       C  0.43879442  0.12826677  0.66943924    -0.02800
C2924       C  0.44303948  0.14915753  0.64935900     0.04000
N2925       N  0.44689774  0.17509318  0.65903687     0.66500
H2926       H  0.44850237  0.16135493  0.60429954     0.15400
H2927       H  0.43033286  0.08631764  0.67417004     0.15100
N2928       N  0.43102542  0.07230140  0.61953775     0.74200
O2929       O  0.47114557  0.19588512  0.66098193    -0.39200
O2930       O  0.42635640  0.17857525  0.65955322    -0.39200
O2931       O  0.44981135  0.06660510  0.62399019    -0.39900
O2932       O  0.40693914  0.05315706  0.61253439    -0.39900
C2933       C  0.26844883  0.77202095  0.98166372    -0.12200
C2934       C  0.26627845  0.79481997  0.99046562     0.04800
C2935       C  0.23961126  0.79186848  0.99073449    -0.07500
C2936       C  0.21608371  0.76641633  0.98327582    -0.08300
C2937       C  0.21826162  0.74352319  0.97481551    -0.02800
C2938       C  0.24503926  0.74681098  0.97357038     0.04000
N2939       N  0.24914117  0.72517053  0.96318663     0.66500
H2940       H  0.28862239  0.77381275  0.98043748     0.15400
H2941       H  0.19591879  0.76466462  0.98422716     0.15100
N2942       N  0.23583373  0.81436305  0.99854783     0.74200
O2943       O  0.25270800  0.72351103  0.93628332    -0.39200
O2944       O  0.25432164  0.71125619  0.98107566    -0.39200
O2945       O  0.23353026  0.82872292  0.97872725    -0.39900
O2946       O  0.23020165  0.81794027  0.52302369    -0.39900
C2947       C  0.40745603  0.98612963  0.52120898    -0.12200
C2948       C  0.38439147  0.97453527  0.50250412     0.04800
C2949       C  0.37466491  0.99164758  0.49164262    -0.07500
C2950       C  0.38909801  0.02018138  0.49837144    -0.08300
C2951       C  0.41310211  0.03201577  0.51601482    -0.02800
C2952       C  0.42153630  0.01427449  0.52832030     0.04000
N2953       N  0.45401165  0.03791513  0.97816704     0.66500
H2954       H  0.41469694  0.97314335  0.53051802     0.15400
H2955       H  0.38218701  0.03328473  0.48870766     0.15100
N2956       N  0.35142503  0.98087014  0.47222654     0.74200
O2957       O  0.43955931  0.02466638  0.57537296    -0.39200
O2958       O  0.45716148  0.04632087  0.95213332    -0.39200
O2959       O  0.32837020  0.97659999  0.48145282    -0.39900
O2960       O  0.32421346  0.96390709  0.99428711    -0.39900
C2961       C  0.43307541  0.90344138  0.57826870    -0.12200
C2962       C  0.43382077  0.90076006  0.54789497     0.04800
C2963       C  0.45721086  0.90138173  0.53549362    -0.07500
C2964       C  0.47595107  0.89871283  0.55362370    -0.08300
C2965       C  0.47354687  0.89849999  0.58409728    -0.02800
C2966       C  0.45356999  0.90381907  0.59625081     0.04000
N2967       N  0.45365873  0.90944789  0.62664687     0.66500
H2968       H  0.41617755  0.90465853  0.58812831     0.15400
H2969       H  0.49237519  0.89663342  0.54383567     0.15100
N2970       N  0.46203805  0.90431435  0.50472071     0.74200
O2971       O  0.46690316  0.93417391  0.63563634    -0.39200
O2972       O  0.44202863  0.88986912  0.64473481    -0.39200
O2973       O  0.47416765  0.93583481  0.99753442    -0.39900
O2974       O  0.46686949  0.89405209  0.99257456    -0.39900
C2975       C  0.39886282  0.83138957  0.92739429    -0.12200
C2976       C  0.39817466  0.83317812  0.95782724     0.04800
C2977       C  0.41685092  0.82886944  0.97468248    -0.07500
C2978       C  0.43935487  0.82914661  0.96100299    -0.08300
C2979       C  0.44193613  0.83082397  0.93051511    -0.02800
C2980       C  0.41978071  0.82887666  0.91370089     0.04000
N2981       N  0.41935027  0.82659842  0.88264262     0.66500
H2982       H  0.38384589  0.83327926  0.91411756     0.15400
H2983       H  0.45553204  0.82937430  0.97428112     0.15100
N2984       N  0.40689867  0.81973675  0.50035600     0.74200
O2985       O  0.41223615  0.80340460  0.87132676    -0.39200
O2986       O  0.41941036  0.84519857  0.86709789    -0.39200
O2987       O  0.39088630  0.79516318  0.50884470    -0.39900
O2988       O  0.42265657  0.83784264  0.51857920    -0.39900
C2989       C  0.24046014  0.79565036  0.72987481    -0.12200
C2990       C  0.26246447  0.79396552  0.74255114     0.04800
C2991       C  0.25812977  0.76747780  0.74955556    -0.07500
C2992       C  0.23248947  0.74366646  0.74367389    -0.08300
C2993       C  0.21061364  0.74523494  0.73052023    -0.02800
C2994       C  0.21485259  0.77173891  0.72364176     0.04000
N2995       N  0.19395121  0.77486241  0.70919439     0.66500
H2996       H  0.24326592  0.81567750  0.72413252     0.15400
H2997       H  0.22982064  0.72369750  0.74944049     0.15100
N2998       N  0.27930436  0.76422716  0.76315860     0.74200
O2999       O  0.17879816  0.78091985  0.72390150    -0.39200
O3000       O  0.19478482  0.77760701  0.68183155    -0.39200
O3001       O  0.27833244  0.75994403  0.79027089    -0.39900
O3002       O  0.29525838  0.75995899  0.74756895    -0.39900
C3003       C  0.37109056  0.98719361  0.74698398    -0.12200
C3004       C  0.38542594  0.97342072  0.75439748     0.04800
C3005       C  0.41176181  0.98883211  0.76791855    -0.07500
C3006       C  0.42370123  0.01725355  0.77205434    -0.08300
C3007       C  0.41044787  0.03154040  0.76287433    -0.02800
C3008       C  0.38334349  0.01603203  0.75109854     0.04000
N3009       N  0.36834762  0.02917948  0.74233582     0.66500
H3010       H  0.35068128  0.97574344  0.73701383     0.15400
H3011       H  0.44400751  0.02829220  0.78232943     0.15100
N3012       N  0.42687536  0.97612719  0.77792776     0.74200
O3013       O  0.37090813  0.03831425  0.71666589    -0.39200
O3014       O  0.34878564  0.02674699  0.75805148    -0.39200
O3015       O  0.44439602  0.97554522  0.76119911    -0.39900
O3016       O  0.42867753  0.97320697  0.80498335    -0.39900
C3017       C  0.45172919  0.89035557  0.78493457    -0.12200
C3018       C  0.43237960  0.89530715  0.79870131     0.04800
C3019       C  0.43566610  0.90215723  0.82854115    -0.07500
C3020       C  0.45680509  0.90178852  0.84451258    -0.08300
C3021       C  0.47382929  0.89311435  0.83160483    -0.02800
C3022       C  0.47212572  0.88880473  0.80107638     0.04000
N3023       N  0.48978372  0.88131950  0.78629542     0.66500
H3024       H  0.44958263  0.88532729  0.76189167     0.15400
H3025       H  0.45816387  0.90592914  0.86771471     0.15100
N3026       N  0.41717636  0.90854435  0.84322309     0.74200
O3027       O  0.48301267  0.85615125  0.78521967    -0.39200
O3028       O  0.50826373  0.89849481  0.76927694    -0.39200
O3029       O  0.39657015  0.88955049  0.85666414    -0.39900
O3030       O  0.42530999  0.93351632  0.84913012    -0.39900
C3031       C  0.34137651  0.90895501  0.88340153    -0.12200
C3032       C  0.32663858  0.88632153  0.90222994     0.04800
C3033       C  0.30661186  0.86037294  0.89062522    -0.07500
C3034       C  0.30392857  0.85672697  0.86035561    -0.08300
C3035       C  0.32028793  0.87886608  0.84152233    -0.02800
C3036       C  0.33796751  0.90552224  0.85318705     0.04000
N3037       N  0.35479944  0.92860361  0.83461811     0.66500
H3038       H  0.35662621  0.92904853  0.89214553     0.15400
H3039       H  0.29009504  0.83621763  0.85154371     0.15100
N3040       N  0.29087395  0.83692568  0.90914150     0.74200
O3041       O  0.34677895  0.94518496  0.82769251    -0.39200
O3042       O  0.37545239  0.93012964  0.82190442    -0.39200
O3043       O  0.26545229  0.82816682  0.91334209    -0.39900
O3044       O  0.30089338  0.82220407  0.91684991    -0.39900
C3045       C  0.34491518  0.91056150  0.63353232    -0.12200
C3046       C  0.32914333  0.88821469  0.65236425     0.04800
C3047       C  0.30895428  0.86238101  0.64065206    -0.07500
C3048       C  0.30620982  0.85881813  0.61038442    -0.08300
C3049       C  0.32296716  0.88082630  0.59153795    -0.02800
C3050       C  0.34180756  0.90714739  0.60328302     0.04000
N3051       N  0.35996088  0.92979426  0.58484225     0.66500
H3052       H  0.36058987  0.93044913  0.64232431     0.15400
H3053       H  0.29187117  0.83845000  0.60155851     0.15100
N3054       N  0.29296875  0.83894621  0.65913039     0.74200
O3055       O  0.35467318  0.94869687  0.57945763    -0.39200
O3056       O  0.38342808  0.93336066  0.57827942    -0.39200
O3057       O  0.26871317  0.83254602  0.66644546    -0.39900
O3058       O  0.30368923  0.82573073  0.66964831    -0.39900
C3059       C  0.41756206  0.83023337  0.65869989    -0.12200
C3060       C  0.43732866  0.82853676  0.67609521     0.04800
C3061       C  0.43169486  0.82236421  0.70591404    -0.07500
C3062       C  0.40982681  0.82384988  0.71891731    -0.08300
C3063       C  0.39329615  0.83110495  0.70223382    -0.02800
C3064       C  0.39560161  0.83160313  0.67152695     0.04000
N3065       N  0.37673080  0.83494476  0.65323271     0.66500
H3066       H  0.42085682  0.83364038  0.63541492     0.15400
H3067       H  0.40749559  0.82184479  0.74239213     0.15100
N3068       N  0.44790181  0.81439463  0.72299249     0.74200
O3069       O  0.38304175  0.85876399  0.64431790    -0.39200
O3070       O  0.35660889  0.81385003  0.64153995    -0.39200
O3071       O  0.47222887  0.83226898  0.73077592    -0.39900
O3072       O  0.43959476  0.78896807  0.72614529    -0.39900
loop_ 
_geom_bond_atom_site_label_1 
_geom_bond_atom_site_label_2 
_geom_bond_distance 
_geom_bond_site_symmetry_2 
_ccdc_geom_bond_type 
Fe1          O17   2.041       .  S
Fe1           O7   2.098       .  S
Fe1          O14   2.102       .  S
Fe1           O6   2.043       .  S
Fe1          O12   1.949       .  S
Fe2           O5   2.061       .  S
Fe2           O9   2.070       .  S
Fe2          O13   2.044       .  S
Fe2          O18   2.077       .  S
Fe2          O12   1.939       .  S
Fe3          O21   2.100       .  S
Fe3           O8   2.058       .  S
Fe3          O15   2.057       .  S
Fe3           O4   2.080       .  S
Fe3          O12   1.941       .  S
O4           C11   1.271       .  A
O5           C19   1.269       .  A
O6           C11   1.264       .  A
O7           C10   1.278       .  A
O8           C20   1.270       .  A
O9           C22   1.271       .  A
C10          O15   1.271       .  A
C10        C1454   1.497       .  S
C11        C1499   1.470       .  S
O13          C16   1.266       .  A
O14          C16   1.276       .  A
C16        C1468   1.486       .  S
O17          C22   1.264       .  A
O18          C20   1.272       .  A
C19          O21   1.274       .  A
C19        C1527   1.487       .  S
C20        C1482   1.471       .  S
C22        C1510   1.460       .  S
Fe23         O39   2.053       .  S
Fe23         O29   2.103       .  S
Fe23         O36   2.099       .  S
Fe23       O1564   2.060       .  S
Fe23         O34   1.959       .  S
Fe24         O27   2.066       .  S
Fe24         O31   2.079       .  S
Fe24         O35   2.051       .  S
Fe24       O1576   2.091       .  S
Fe24         O34   1.943       .  S
Fe25         O30   2.066       .  S
Fe25         O37   2.058       .  S
Fe25         O26   2.068       .  S
Fe25       O1579   2.081   1_554  S
Fe25       O1570   1.949   1_554  S
O26          C33   1.267       .  A
O27          C41   1.270       .  A
O28       Fe1559   2.059   1_554  S
O28          C33   1.266       .  A
O29          C32   1.277       .  A
O30          C42   1.275       .  A
O31          C44   1.273       .  A
C32        O1573   1.272       .  A
C32        C1398   1.498       .  S
C33        C1513   1.470       .  S
O34       Fe1561   1.948       .  S
O35        C1574   1.269       .  A
O36        C1574   1.273       .  A
O37        C1568   1.273   1_554  A
C38        O1571   1.269       .  A
C38        O1572   1.272       .  A
C38        C1412   1.491       .  S
O39          C44   1.268       .  A
O40       Fe1560   2.093   1_554  S
O40          C42   1.276       .  A
C41          O43   1.269       .  A
C41        C1440   1.486       .  S
C42        C1426   1.487       .  S
O43       Fe1561   2.082       .  S
C44        C1496   1.468       .  S
Fe45         O61   2.057       .  S
Fe45         O51   2.107       .  S
Fe45         O58   2.100       .  S
Fe45       O1586   2.053   1_554  S
Fe45         O56   1.959       .  S
Fe46         O49   2.052       .  S
Fe46         O53   2.078       .  S
Fe46         O57   2.036       .  S
Fe46       O1598   2.085       .  S
Fe46         O56   1.943       .  S
Fe47         O52   2.066       .  S
Fe47         O48   2.069       .  S
Fe47       O1601   2.088       .  S
Fe47       O1595   2.067       .  S
Fe47       O1592   1.960       .  S
O48          C55   1.265       .  A
O49          C63   1.269       .  A
O50       Fe1581   2.069       .  S
O50          C55   1.266       .  A
O51          C54   1.281       .  A
O52          C64   1.275       .  A
O53          C66   1.271       .  A
C54          O59   1.277       .  A
C54        C1328   1.502       .  S
C55        C1370   1.475       .  S
O56       Fe1583   1.957   1_554  S
O57          C60   1.266       .  A
O58          C60   1.276       .  A
O59       Fe1583   2.068   1_554  S
C60        C1415   1.482       .  S
O61          C66   1.267       .  A
O62       Fe1582   2.085       .  S
O62          C64   1.274       .  A
C63          O65   1.268       .  A
C63        C1359   1.483       .  S
C64        C1342   1.485       .  S
O65       Fe1583   2.090   1_554  S
C66        C1384   1.477       .  S
Fe67         O83   2.060       .  S
Fe67         O73   2.106       .  S
Fe67         O80   2.106       .  S
Fe67         O72   2.057       .  S
Fe67         O78   1.939       .  S
Fe68         O71   2.053       .  S
Fe68         O75   2.086       .  S
Fe68         O79   2.036       .  S
Fe68         O84   2.104       .  S
Fe68         O78   1.927       .  S
Fe69         O87   2.095       .  S
Fe69         O74   2.033       .  S
Fe69         O81   2.015       .  S
Fe69         O70   2.086       .  S
Fe69         O78   1.939       .  S
O70          C77   1.270       .  A
O71          C85   1.265       .  A
O72          C77   1.266       .  A
O73          C76   1.281       .  A
O74          C86   1.264       .  A
O75          C88   1.273       .  A
C76          O81   1.264       .  A
C76        C1289   1.477       .  S
C77        C1387   1.471       .  S
O79          C82   1.269       .  A
O80          C82   1.277       .  A
C82        C1471   1.485       .  S
O83          C88   1.269       .  A
O84          C86   1.277       .  A
C85          O87   1.272       .  A
C85        C1317   1.476       .  S
C86        C1303   1.466       .  S
C88        C1373   1.476       .  S
Fe89        O105   2.048       .  S
Fe89         O95   2.092       .  S
Fe89        O102   2.100       .  S
Fe89         O94   2.044       .  S
Fe89        O100   1.952       .  S
Fe90         O93   2.066       .  S
Fe90         O97   2.107       .  S
Fe90        O101   2.062       .  S
Fe90        O106   2.113       .  S
Fe90        O100   1.934       .  S
Fe91        O109   2.103       .  S
Fe91         O96   2.045       .  S
Fe91        O103   2.053       .  S
Fe91         O92   2.096       .  S
Fe91        O100   1.942       .  S
O92          C99   1.275       .  A
O93         C107   1.268       .  A
O94          C99   1.269       .  A
O95          C98   1.272       .  A
O96         C108   1.268       .  A
O97         C110   1.282       .  A
C98         O103   1.269       .  A
C98        C1230   1.489       .  S
C99        C1275   1.470       .  S
O101        C104   1.267       .  A
O102        C104   1.271       .  A
C104       C1244   1.495       .  S
O105        C110   1.271       .  A
O106        C108   1.280       .  A
C107        O109   1.275       .  A
C107       C1356   1.487       .  S
C108       C1300   1.483       .  S
C110       C1258   1.478       .  S
Fe111       O127   2.073       .  S
Fe111       O117   2.096       .  S
Fe111       O124   2.082       .  S
Fe111       O116   2.083       .  S
Fe111       O122   1.962       .  S
Fe112       O115   2.057       .  S
Fe112       O119   2.064       .  S
Fe112       O123   2.044       .  S
Fe112       O128   2.080       .  S
Fe112       O122   1.948       .  S
Fe113       O131   2.075       .  S
Fe113       O118   2.055       .  S
Fe113       O125   2.055       .  S
Fe113       O114   2.067       .  S
Fe113       O122   1.953       .  S
O114        C121   1.269       .  A
O115        C129   1.267       .  A
O116        C121   1.271       .  A
O117        C120   1.274       .  A
O118        C130   1.271       .  A
O119        C132   1.272       .  A
C120        O125   1.270       .  A
C120       C1202   1.490       .  S
C121       C1261   1.482       .  S
O123        C126   1.267       .  A
O124        C126   1.267       .  A
C126       C1216   1.487       .  S
O127        C132   1.275       .  A
O128        C130   1.273       .  A
C129        O131   1.268       .  A
C129       C1314   1.481       .  S
C130       C1345   1.474       .  S
C132       C1272   1.475       .  S
Fe133       O149   2.069       .  S
Fe133       O139   2.095       .  S
Fe133       O146   2.098       .  S
Fe133       O138   2.059       .  S
Fe133       O144   1.973       .  S
Fe134       O137   2.060       .  S
Fe134       O141   2.067       .  S
Fe134       O145   2.049       .  S
Fe134       O150   2.080       .  S
Fe134       O144   1.953       .  S
Fe135       O153   2.079       .  S
Fe135       O140   2.068       .  S
Fe135       O147   2.067       .  S
Fe135       O136   2.064       .  S
Fe135       O144   1.961       .  S
O136        C143   1.267       .  A
O137        C151   1.266       .  A
O138        C143   1.267       .  A
O139        C142   1.275       .  A
O140        C152   1.275       .  A
O141        C154   1.272       .  A
C142        O147   1.274       .  A
C142       C1163   1.490       .  S
C143       C1188   1.471       .  S
O145        C148   1.267       .  A
O146        C148   1.271       .  A
C148       C1247   1.495       .  S
O149        C154   1.271       .  A
O150        C152   1.274       .  A
C151        O153   1.266       .  A
C151       C1524   1.482       .  S
C152       C1429   1.481       .  S
C154       C1174   1.467       .  S
Fe155       O171   2.052       .  S
Fe155       O161   2.108       .  S
Fe155       O168   2.099       .  S
Fe155       O160   2.054       .  S
Fe155       O166   1.948       .  S
Fe156       O159   2.058       .  S
Fe156       O163   2.060       .  S
Fe156       O167   2.029       .  S
Fe156       O172   2.072       .  S
Fe156       O166   1.939       .  S
Fe157       O175   2.095       .  S
Fe157       O162   2.054       .  S
Fe157       O169   2.060       .  S
Fe157       O158   2.078       .  S
Fe157       O166   1.944       .  S
O158        C165   1.269       .  A
O159        C173   1.267       .  A
O160        C165   1.264       .  A
O161        C164   1.282       .  A
O162        C174   1.270       .  A
O163        C176   1.269       .  A
C164        O169   1.274       .  A
C164       C1149   1.495       .  S
C165       C1177   1.479       .  S
O167        C170   1.263       .  A
O168        C170   1.275       .  A
C170       C1219   1.480       .  S
O171        C176   1.268       .  A
O172        C174   1.272       .  A
C173        O175   1.271       .  A
C173       C1443   1.484       .  S
C174       C1485   1.479       .  S
C176       C1191   1.463       .  S
Fe177       O193   2.051       .  S
Fe177       O183   2.109       .  S
Fe177       O190   2.110       .  S
Fe177       O182   2.053       .  S
Fe177       O188   1.947       .  S
Fe178       O181   2.048       .  S
Fe178       O185   2.087       .  S
Fe178       O189   2.038       .  S
Fe178       O194   2.099       .  S
Fe178       O188   1.928       .  S
Fe179       O197   2.099       .  S
Fe179       O184   2.048       .  S
Fe179       O191   2.053       .  S
Fe179       O180   2.086       .  S
Fe179       O188   1.938       .  S
O180        C187   1.272       .  A
O181        C195   1.265       .  A
O182        C187   1.267       .  A
O183        C186   1.279       .  A
O184        C196   1.270       .  A
O185        C198   1.278       .  A
C186        O191   1.270       .  A
C186       C1062   1.486       .  S
C187       C1121   1.469       .  S
O189        C192   1.264       .  A
O190        C192   1.274       .  A
C192       C1079   1.481       .  S
O193        C198   1.269       .  A
O194        C196   1.277       .  A
C195        O197   1.273       .  A
C195       C1093   1.487       .  S
C196       C1135   1.482       .  S
C198       C1104   1.480       .  S
Fe199       O215   2.055       .  S
Fe199       O205   2.113       .  S
Fe199       O212   2.114       .  S
Fe199       O204   2.057       .  S
Fe199       O210   1.937       .  S
Fe200       O203   2.054       .  S
Fe200       O207   2.090       .  S
Fe200       O211   2.048       .  S
Fe200       O216   2.103       .  S
Fe200       O210   1.923       .  S
Fe201       O219   2.088       .  S
Fe201       O206   2.032       .  S
Fe201       O213   2.033       .  S
Fe201       O202   2.088       .  S
Fe201       O210   1.938       .  S
O202        C209   1.273       .  A
O203        C217   1.266       .  A
O204        C209   1.268       .  A
O205        C208   1.280       .  A
O206        C218   1.264       .  A
O207        C220   1.276       .  A
C208        O213   1.264       .  A
C208       C1006   1.488       .  S
C209       C1107   1.473       .  S
O211        C214   1.268       .  A
O212        C214   1.276       .  A
C214       C1020   1.487       .  S
O215        C220   1.271       .  A
O216        C218   1.278       .  A
C217        O219   1.272       .  A
C217       C1034   1.468       .  S
C218       C1048   1.466       .  S
C220       C2654   1.476       .  S
Fe221       O227   2.110       .  S
Fe221       O234   2.113       .  S
Fe221       O226   2.056       .  S
Fe221      O1773   2.061   1_554  S
Fe221       O232   1.946       .  S
Fe222       O225   2.042   1_554  S
Fe222       O233   2.030       .  S
Fe222       O238   2.091       .  S
Fe222      O1765   2.081   1_554  S
Fe222       O232   1.942       .  S
Fe223       O241   2.104       .  S
Fe223       O228   2.053       .  S
Fe223       O235   2.060       .  S
Fe223       O224   2.093       .  S
Fe223       O232   1.944       .  S
O224        C231   1.274       .  A
O225        C239   1.265   1_556  A
O226        C231   1.267       .  A
O227        C230   1.280       .  A
O228        C240   1.269       .  A
O229      Fe1758   2.078       .  S
O229        C242   1.271       .  A
C230        O235   1.271       .  A
C230       C1331   1.499       .  S
C231        C992   1.478       .  S
O233        C236   1.264       .  A
O234        C236   1.278       .  A
C236        C964   1.486       .  S
O237      Fe1757   2.055       .  S
O237        C242   1.269       .  A
O238        C240   1.273       .  A
C239        O241   1.276       .  A
C239       C2573   1.490   1_554  S
C240       C1132   1.478       .  S
C242        C978   1.475       .  S
Fe243       O259   2.064       .  S
Fe243       O249   2.079       .  S
Fe243       O256   2.099       .  S
Fe243       O248   2.060       .  S
Fe243       O254   1.943       .  S
Fe244       O247   2.056       .  S
Fe244       O251   2.084       .  S
Fe244       O255   2.045       .  S
Fe244       O260   2.108       .  S
Fe244       O254   1.928       .  S
Fe245       O263   2.097       .  S
Fe245       O250   2.045       .  S
Fe245       O257   2.042       .  S
Fe245       O246   2.088       .  S
Fe245       O254   1.931       .  S
O246        C253   1.273       .  A
O247        C261   1.265       .  A
O248        C253   1.271       .  A
O249        C252   1.271       .  A
O250        C262   1.270       .  A
O251        C264   1.276       .  A
C252        O257   1.270       .  A
C252       C1286   1.477       .  S
C253        C981   1.473       .  S
O255        C258   1.268       .  A
O256        C258   1.274       .  A
C258        C953   1.485       .  S
O259        C264   1.269       .  A
O260        C262   1.277       .  A
C261        O263   1.273       .  A
C261       C1090   1.478       .  S
C262       C1051   1.474       .  S
C264        C995   1.477       .  S
Fe265       O281   2.055       .  S
Fe265       O271   2.112       .  S
Fe265       O278   2.104       .  S
Fe265       O270   2.053       .  S
Fe265       O276   1.947       .  S
Fe266       O269   2.056       .  S
Fe266       O273   2.077       .  S
Fe266       O277   2.047       .  S
Fe266       O282   2.098       .  S
Fe266       O276   1.942       .  S
Fe267       O285   2.090       .  S
Fe267       O272   2.047       .  S
Fe267       O279   2.049       .  S
Fe267       O268   2.070       .  S
Fe267       O276   1.945       .  S
O268        C275   1.271       .  A
O269        C283   1.267       .  A
O270        C275   1.266       .  A
O271        C274   1.280       .  A
O272        C284   1.267       .  A
O273        C286   1.272       .  A
C274        O279   1.269       .  A
C274       C1160   1.494       .  S
C275        C894   1.474       .  S
O277        C280   1.268       .  A
O278        C280   1.277       .  A
C280       C1076   1.484       .  S
O281        C286   1.269       .  A
O282        C284   1.274       .  A
C283        O285   1.272       .  A
C283        C936   1.477       .  S
C284        C922   1.469       .  S
C286        C908   1.469       .  S
Fe287       O303   2.050       .  S
Fe287       O293   2.101       .  S
Fe287       O300   2.106       .  S
Fe287       O292   2.056       .  S
Fe287       O298   1.956       .  S
Fe288       O291   2.055       .  S
Fe288       O295   2.069       .  S
Fe288       O299   2.045       .  S
Fe288       O304   2.089       .  S
Fe288       O298   1.951       .  S
Fe289       O307   2.093       .  S
Fe289       O294   2.059       .  S
Fe289       O301   2.062       .  S
Fe289       O290   2.081       .  S
Fe289       O298   1.951       .  S
O290        C297   1.271       .  A
O291        C305   1.265       .  A
O292        C297   1.269       .  A
O293        C296   1.276       .  A
O294        C306   1.273       .  A
O295        C308   1.271       .  A
C296        O301   1.273       .  A
C296       C1146   1.497       .  S
C297       C2447   1.473       .  S
O299        C302   1.266       .  A
O300        C302   1.275       .  A
C302       C1023   1.489       .  S
O303        C308   1.268       .  A
O304        C306   1.275       .  A
C305        O307   1.272       .  A
C305        C883   1.491       .  S
C306        C866   1.479       .  S
C308        C897   1.459       .  S
Fe309       O325   2.060       .  S
Fe309       O315   2.100       .  S
Fe309       O322   2.101       .  S
Fe309       O314   2.062       .  S
Fe309       O320   1.955       .  S
Fe310       O313   2.059       .  S
Fe310       O317   2.068       .  S
Fe310       O321   2.038       .  S
Fe310       O326   2.083       .  S
Fe310       O320   1.942       .  S
Fe311       O329   2.078       .  S
Fe311       O316   2.060       .  S
Fe311       O323   2.058       .  S
Fe311      O1848   2.077   1_554  S
Fe311       O320   1.954       .  S
O312      Fe1847   2.070       .  S
O312        C319   1.267       .  A
O313        C327   1.266       .  A
O314       C1855   1.267   1_554  A
O315        C318   1.279       .  A
O316        C328   1.274       .  A
O317        C330   1.270       .  A
C318        O323   1.272       .  A
C318        C824   1.486       .  S
C319       O1850   1.267       .  A
C319        C841   1.469       .  S
O321        C324   1.268       .  A
O322        C324   1.273       .  A
C324        C967   1.492       .  S
O325        C330   1.270       .  A
O326        C328   1.274       .  A
C327        O329   1.266       .  A
C327        C939   1.480       .  S
C328       C2405   1.478   1_554  S
C330        C852   1.468       .  S
Fe331       O347   2.050       .  S
Fe331       O337   2.105       .  S
Fe331       O344   2.096       .  S
Fe331       O336   2.049       .  S
Fe331       O342   1.951       .  S
Fe332       O335   2.063       .  S
Fe332       O339   2.089       .  S
Fe332       O343   2.045       .  S
Fe332       O348   2.103       .  S
Fe332       O342   1.933       .  S
Fe333       O351   2.093       .  S
Fe333       O338   2.043       .  S
Fe333       O345   2.044       .  S
Fe333       O334   2.085       .  S
Fe333       O342   1.943       .  S
O334        C341   1.271       .  A
O335        C349   1.266       .  A
O336        C341   1.267       .  A
O337        C340   1.277       .  A
O338        C350   1.269       .  A
O339        C352   1.276       .  A
C340        O345   1.270       .  A
C340        C810   1.488       .  S
C341        C855   1.473       .  S
O343        C346   1.268       .  A
O344        C346   1.272       .  A
C346        C950   1.483       .  S
O347        C352   1.271       .  A
O348        C350   1.278       .  A
C349        O351   1.271       .  A
C349        C880   1.479       .  S
C350        C925   1.476       .  S
C352        C838   1.473       .  S
Fe353       O369   2.064       .  S
Fe353       O359   2.095       .  S
Fe353       O366   2.084       .  S
Fe353       O358   2.065       .  S
Fe353       O364   1.952       .  S
Fe354       O357   2.050       .  S
Fe354       O361   2.095       .  S
Fe354       O365   2.043       .  S
Fe354       O370   2.109       .  S
Fe354       O364   1.942       .  S
Fe355       O373   2.092       .  S
Fe355       O360   2.058       .  S
Fe355       O367   2.055       .  S
Fe355       O356   2.080       .  S
Fe355       O364   1.957       .  S
O356        C363   1.270       .  A
O357        C371   1.266       .  A
O358        C363   1.268       .  A
O359        C362   1.276       .  A
O360        C372   1.270       .  A
O361        C374   1.275       .  A
C362        O367   1.271       .  A
C362        C827   1.489       .  S
C363        C796   1.480       .  S
O365        C368   1.267       .  A
O366        C368   1.272       .  A
C368        C743   1.475       .  S
O369        C374   1.271       .  A
O370        C372   1.280       .  A
C371        O373   1.270       .  A
C371        C754   1.479       .  S
C372        C768   1.496       .  S
C374       C2321   1.479   1_554  S
Fe375       O391   2.066       .  S
Fe375       O381   2.110       .  S
Fe375       O388   2.113       .  S
Fe375       O380   2.061       .  S
Fe375       O386   1.936       .  S
Fe376       O379   2.043       .  S
Fe376       O383   2.078       .  S
Fe376       O387   2.037       .  S
Fe376       O392   2.104       .  S
Fe376       O386   1.922       .  S
Fe377       O395   2.105       .  S
Fe377       O382   2.056       .  S
Fe377       O389   2.045       .  S
Fe377       O378   2.079       .  S
Fe377       O386   1.951       .  S
O378        C385   1.269       .  A
O379        C393   1.259       .  A
O380        C385   1.268       .  A
O381        C384   1.282       .  A
O382        C394   1.272       .  A
O383        C396   1.271       .  A
C384        O389   1.272       .  A
C384        C813   1.490       .  S
C385        C782   1.474       .  S
O387        C390   1.268       .  A
O388        C390   1.279       .  A
C390        C698   1.487       .  S
O391        C396   1.271       .  A
O392        C394   1.280       .  A
C393        O395   1.268       .  A
C393        C712   1.471       .  S
C394        C726   1.483       .  S
C396        C799   1.476       .  S
Fe397       O413   2.066       .  S
Fe397       O403   2.113       .  S
Fe397       O410   2.113       .  S
Fe397       O402   2.070       .  S
Fe397       O408   1.934       .  S
Fe398       O401   2.033       .  S
Fe398       O405   2.089       .  S
Fe398       O409   2.027       .  S
Fe398       O414   2.116       .  S
Fe398       O408   1.917       .  S
Fe399       O417   2.120       .  S
Fe399       O404   2.053       .  S
Fe399       O411   2.053       .  S
Fe399       O400   2.089       .  S
Fe399       O408   1.942       .  S
O400        C407   1.275       .  A
O401        C415   1.257       .  A
O402        C407   1.271       .  A
O403        C406   1.280       .  A
O404        C416   1.269       .  A
O405        C418   1.274       .  A
C406        O411   1.273       .  A
C406       C1457   1.498       .  S
C407        C684   1.487       .  S
O409        C412   1.264       .  A
O410        C412   1.278       .  A
C412        C659   1.485       .  S
O413        C418   1.271       .  A
O414        C416   1.279       .  A
C415        O417   1.274       .  A
C415        C715   1.478       .  S
C416        C771   1.484       .  S
C418        C670   1.480       .  S
Fe419       O425   2.097       .  S
Fe419       O432   2.096       .  S
Fe419       O424   2.063       .  S
Fe419      O1971   2.058       .  S
Fe419       O430   1.950       .  S
Fe420       O431   2.045       .  S
Fe420       O436   2.098       .  S
Fe420      O1959   2.054       .  S
Fe420      O1963   2.083       .  S
Fe420       O430   1.938       .  S
Fe421       O439   2.098       .  S
Fe421       O426   2.058       .  S
Fe421       O433   2.059       .  S
Fe421       O422   2.083       .  S
Fe421       O430   1.951       .  S
O422        C429   1.271       .  A
O423      Fe1956   2.051   1_554  S
O423       C1973   1.266   1_554  A
O424        C429   1.268       .  A
O425        C428   1.278       .  A
O426        C438   1.271       .  A
O427      Fe1956   2.092   1_554  S
O427        C440   1.275       .  A
C428        O433   1.272       .  A
C428       C1401   1.497       .  S
C429        C673   1.479       .  S
O431        C434   1.266       .  A
O432        C434   1.274       .  A
C434        C642   1.491       .  S
O435      Fe1955   2.066   1_554  S
O435        C440   1.271       .  A
O436        C438   1.278       .  A
C437        O439   1.271       .  A
C437       O1959   1.266       .  A
C437       C2293   1.485       .  S
C438        C729   1.486       .  S
C440        C687   1.479       .  S
Fe441       O457   2.071       .  S
Fe441       O447   2.100       .  S
Fe441       O454   2.115       .  S
Fe441       O446   2.058       .  S
Fe441       O452   1.937       .  S
Fe442       O445   2.038       .  S
Fe442       O449   2.066       .  S
Fe442       O453   2.027       .  S
Fe442       O458   2.098       .  S
Fe442       O452   1.914       .  S
Fe443       O461   2.128       .  S
Fe443       O448   2.058       .  S
Fe443       O455   2.052       .  S
Fe443       O444   2.085       .  S
Fe443       O452   1.952       .  S
O444        C451   1.272       .  A
O445        C459   1.257       .  A
O446        C451   1.269       .  A
O447        C450   1.280       .  A
O448        C460   1.270       .  A
O449        C462   1.270       .  A
C450        O455   1.274       .  A
C450       C1065   1.481       .  S
C451        C586   1.477       .  S
O453        C456   1.268       .  A
O454        C456   1.279       .  A
C456        C656   1.487       .  S
O457        C462   1.270       .  A
O458        C460   1.276       .  A
C459        O461   1.273       .  A
C459        C628   1.478       .  S
C460        C614   1.478       .  S
C462        C600   1.475       .  S
Fe463       O479   2.055       .  S
Fe463       O469   2.098       .  S
Fe463       O476   2.096       .  S
Fe463      O2004   2.059       .  S
Fe463       O474   1.957       .  S
Fe464       O467   2.061       .  S
Fe464       O471   2.084       .  S
Fe464       O475   2.039       .  S
Fe464       O480   2.096       .  S
Fe464       O474   1.940       .  S
Fe465       O483   2.092       .  S
Fe465       O477   2.050       .  S
Fe465      O2006   2.052       .  S
Fe465      O2002   2.074       .  S
Fe465       O474   1.949       .  S
O466      Fe2001   2.076   1_554  S
O466        C473   1.269       .  A
O467        C481   1.267       .  A
O468      Fe1999   2.064   1_554  S
O468        C473   1.267       .  A
O469        C472   1.278       .  A
O470      Fe2001   2.048   1_554  S
O470       C2018   1.270   1_554  A
O471        C484   1.273       .  A
C472        O477   1.273       .  A
C472       C1009   1.489       .  S
C473        C603   1.474       .  S
O475        C478   1.267       .  A
O476        C478   1.272       .  A
C478        C645   1.485       .  S
O479        C484   1.269       .  A
O480        C482   1.278       .  A
C481        O483   1.269       .  A
C481        C572   1.484       .  S
C482       O2006   1.271       .  A
C482       C2094   1.488       .  S
C484        C589   1.470       .  S
Fe485       O501   2.061       .  S
Fe485       O491   2.100       .  S
Fe485       O498   2.106       .  S
Fe485       O490   2.067       .  S
Fe485       O496   1.937       .  S
Fe486       O489   2.038       .  S
Fe486       O493   2.086       .  S
Fe486       O497   2.027       .  S
Fe486       O502   2.096       .  S
Fe486       O496   1.925       .  S
Fe487       O505   2.117       .  S
Fe487       O492   2.048       .  S
Fe487       O499   2.049       .  S
Fe487       O488   2.089       .  S
Fe487       O496   1.936       .  S
O488        C495   1.275       .  A
O489        C503   1.262       .  A
O490        C495   1.271       .  A
O491        C494   1.278       .  A
O492        C504   1.267       .  A
O493        C506   1.273       .  A
C494        O499   1.270       .  A
C494       C1233   1.486       .  S
C495       C2066   1.482       .  S
O497        C500   1.265       .  A
O498        C500   1.275       .  A
C500        C740   1.472       .  S
O501        C506   1.270       .  A
O502        C504   1.274       .  A
C503        O505   1.277       .  A
C503        C631   1.479       .  S
C504        C561   1.470       .  S
C506        C544   1.476       .  S
Fe507       O523   2.061       .  S
Fe507       O513   2.096       .  S
Fe507       O520   2.099       .  S
Fe507       O512   2.054       .  S
Fe507       O518   1.948       .  S
Fe508       O511   2.055       .  S
Fe508       O515   2.093       .  S
Fe508       O519   2.050       .  S
Fe508       O524   2.091       .  S
Fe508       O518   1.937       .  S
Fe509       O527   2.099       .  S
Fe509       O514   2.052       .  S
Fe509       O521   2.059       .  S
Fe509       O510   2.092       .  S
Fe509       O518   1.948       .  S
O510        C517   1.274       .  A
O511        C525   1.269       .  A
O512        C517   1.268       .  A
O513        C516   1.276       .  A
O514        C526   1.269       .  A
O515        C528   1.275       .  A
C516        O521   1.270       .  A
C516       C1205   1.489       .  S
C517        C547   1.480       .  S
O519        C522   1.267       .  A
O520        C522   1.273       .  A
C522        C701   1.484       .  S
O523        C528   1.270       .  A
O524        C526   1.275       .  A
C525        O527   1.274       .  A
C525        C575   1.484       .  S
C526        C617   1.485       .  S
C528        C533   1.476       .  S
C529        C530   1.405       .  A
C529        C534   1.399       .  A
C529        H536   1.084       .  S
C530       C2031   1.487       .  S
C530        C531   1.416       .  A
C531        C532   1.406       .  A
C531       N2074   1.429       .  S
C532        C533   1.402       .  A
C532        H537   1.084       .  S
C533        C534   1.407       .  A
C534        N535   1.428       .  S
N535        O539   1.262       .  A
N535        O540   1.262       .  A
N538       C2067   1.429   1_554  S
N538        O542   1.260       .  A
N538        O541   1.262       .  A
C543        C544   1.404       .  A
C543        C548   1.401       .  A
C543        H550   1.084       .  S
C544        C545   1.409       .  A
C545        C546   1.401       .  A
C545        N552   1.429       .  S
C546        C547   1.406       .  A
C546        H551   1.084       .  S
C547        C548   1.410       .  A
C548        N549   1.428       .  S
N549        O553   1.262       .  A
N549        O554   1.262       .  A
N552        O556   1.262       .  A
N552        O555   1.262       .  A
C557       C2094   1.409       .  A
C557       C2098   1.402       .  A
C557        H564   1.084       .  S
C558       C2018   1.489   1_554  S
C558        C559   1.419       .  A
C558       C2093   1.409       .  A
C559        C560   1.398       .  A
C559        N566   1.430       .  S
C560        C561   1.399       .  A
C560        H565   1.083       .  S
C561        C562   1.405       .  A
C562       C2093   1.401       .  A
C562       N2099   1.428       .  S
N563       C2098   1.430       .  S
N563        O567   1.262       .  A
N563        O568   1.261       .  A
N566        O570   1.262       .  A
N566        O569   1.262       .  A
C571        C572   1.403       .  A
C571        C576   1.404       .  A
C571        H578   1.084       .  S
C572        C573   1.414       .  A
C573        C574   1.403       .  A
C573        N580   1.428       .  S
C574        C575   1.403       .  A
C574        H579   1.084       .  S
C575        C576   1.413       .  A
C576        N577   1.428       .  S
N577        O581   1.262       .  A
N577        O582   1.260       .  A
N580        O584   1.260       .  A
N580        O583   1.262       .  A
C585        C586   1.406       .  A
C585        C590   1.401       .  A
C585        H592   1.084       .  S
C586        C587   1.411       .  A
C587        C588   1.399       .  A
C587        N594   1.429       .  S
C588        C589   1.402       .  A
C588        H593   1.084       .  S
C589        C590   1.407       .  A
C590        N591   1.429       .  S
N591        O595   1.262       .  A
N591        O596   1.262       .  A
N594        O598   1.262       .  A
N594        O597   1.262       .  A
C599        C600   1.403       .  A
C599        C604   1.399       .  A
C599        H606   1.084       .  S
C600        C601   1.410       .  A
C601        C602   1.401       .  A
C601        N608   1.429       .  S
C602        C603   1.404       .  A
C602        H607   1.084       .  S
C603        C604   1.410       .  A
C604        N605   1.430       .  S
N605        O609   1.261       .  A
N605        O610   1.262       .  A
N608        O612   1.262       .  A
N608        O611   1.262       .  A
C613        C614   1.402       .  A
C613        C618   1.398       .  A
C613        H620   1.083       .  S
C614        C615   1.410       .  A
C615        C616   1.402       .  A
C615        N622   1.429       .  S
C616        C617   1.407       .  A
C616        H621   1.084       .  S
C617        C618   1.414       .  A
C618        N619   1.430       .  S
N619        O623   1.262       .  A
N619        O624   1.262       .  A
N622        O626   1.262       .  A
N622        O625   1.262       .  A
C627        C628   1.398       .  A
C627        C632   1.386       .  A
C627        H634   1.084       .  S
C628        C629   1.410       .  A
C629        C630   1.415       .  A
C629        N636   1.427       .  S
C630        C631   1.409       .  A
C630        H635   1.083       .  S
C631        C632   1.413       .  A
C632        N633   1.433       .  S
N633        O637   1.262       .  A
N633        O638   1.262       .  A
N636        O640   1.262       .  A
N636        O639   1.262       .  A
C641        C642   1.410       .  A
C641        C646   1.409   1_455  A
C641        H648   1.083       .  S
C642        C643   1.416       .  A
C643        C644   1.393   1_455  A
C643        N650   1.430       .  S
C644        C645   1.403       .  A
C644        H649   1.084       .  S
C645        C646   1.412       .  A
C646        N647   1.428       .  S
N647        O651   1.262       .  A
N647        O652   1.262       .  A
N650        O654   1.262       .  A
N650        O653   1.262       .  A
C655        C656   1.404       .  A
C655        C660   1.390   1_655  A
C655        H662   1.084       .  S
C656        C657   1.413       .  A
C657        C658   1.410   1_655  A
C657        N664   1.428       .  S
C658        C659   1.409       .  A
C658        H663   1.084       .  S
C659        C660   1.415       .  A
C660        N661   1.432       .  S
N661        O665   1.262       .  A
N661        O666   1.262       .  A
N664        O668   1.262       .  A
N664        O667   1.262       .  A
C669        C670   1.404       .  A
C669        C674   1.401       .  A
C669        H676   1.084       .  S
C670        C671   1.411       .  A
C671        C672   1.403       .  A
C671        N678   1.429       .  S
C672        C673   1.404       .  A
C672        H677   1.084       .  S
C673        C674   1.411       .  A
C674        N675   1.429       .  S
N675        O679   1.262       .  A
N675        O680   1.262       .  A
N678        O682   1.262       .  A
N678        O681   1.262       .  A
C683        C684   1.405       .  A
C683        C688   1.401       .  A
C683        H690   1.084       .  S
C684        C685   1.416       .  A
C685        C686   1.405       .  A
C685        N692   1.428       .  S
C686        C687   1.402       .  A
C686        H691   1.084       .  S
C687        C688   1.409       .  A
C688        N689   1.429       .  S
N689        O693   1.262       .  A
N689        O694   1.262       .  A
N692        O696   1.261       .  A
N692        O695   1.262       .  A
C697        C698   1.405       .  A
C697        C702   1.395   1_455  A
C697        H704   1.084       .  S
C698        C699   1.413       .  A
C699        C700   1.410   1_455  A
C699        N706   1.428       .  S
C700        C701   1.407       .  A
C700        H705   1.084       .  S
C701        C702   1.410       .  A
C702        N703   1.430       .  S
N703        O707   1.262       .  A
N703        O708   1.262       .  A
N706        O710   1.262       .  A
N706        O709   1.262       .  A
C711        C712   1.395       .  A
C711        C716   1.384       .  A
C711        H718   1.085       .  S
C712        C713   1.410       .  A
C713        C714   1.414       .  A
C713        N720   1.427       .  S
C714        C715   1.409       .  A
C714        H719   1.083       .  S
C715        C716   1.415       .  A
C716        N717   1.433       .  S
N717        O721   1.262       .  A
N717        O722   1.262       .  A
N720        O724   1.262       .  A
N720        O723   1.262       .  A
C725        C726   1.404       .  A
C725        C730   1.401       .  A
C725        H732   1.084       .  S
C726        C727   1.411       .  A
C727        C728   1.401       .  A
C727        N734   1.428       .  S
C728        C729   1.405       .  A
C728        H733   1.084       .  S
C729        C730   1.414       .  A
C730        N731   1.429       .  S
N731        O735   1.262       .  A
N731        O736   1.262       .  A
N734        O738   1.261       .  A
N734        O737   1.262       .  A
C739        C740   1.400       .  A
C739        C744   1.391   1_655  A
C739        H746   1.084       .  S
C740        C741   1.410       .  A
C741        C742   1.405   1_655  A
C741        N748   1.428       .  S
C742        C743   1.406       .  A
C742        H747   1.084       .  S
C743        C744   1.410       .  A
C744        N745   1.429       .  S
N745        O749   1.261       .  A
N745        O750   1.262       .  A
N748        O752   1.261       .  A
N748        O751   1.262       .  A
C753        C754   1.403       .  A
C753        C758   1.401   1_554  A
C753        H760   1.084   1_554  S
C754        C755   1.412       .  A
C755        C756   1.401       .  A
C755        N762   1.428       .  S
C756        C757   1.404       .  A
C756        H761   1.084       .  S
C757       C1973   1.480   1_554  S
C757        C758   1.412   1_554  A
C758       N2295   1.428       .  S
N759       C2294   1.428       .  S
N759        O763   1.262       .  A
N759        O764   1.260       .  A
N762        O766   1.260       .  A
N762        O765   1.261       .  A
C767        C768   1.408       .  A
C767        C772   1.404       .  A
C767        H774   1.084       .  S
C768        C769   1.418       .  A
C769        C770   1.404       .  A
C769        N776   1.430       .  S
C770        C771   1.403       .  A
C770        H775   1.084       .  S
C771        C772   1.412       .  A
C772        N773   1.430       .  S
N773        O777   1.262       .  A
N773        O778   1.261       .  A
N776        O780   1.262       .  A
N776        O779   1.262       .  A
C781        C782   1.404       .  A
C781        C786   1.400       .  A
C781        H788   1.084       .  S
C782        C783   1.411       .  A
C783        C784   1.397       .  A
C783        N790   1.429       .  S
C784        C785   1.400       .  A
C784        H789   1.084       .  S
C785       C1910   1.471       .  S
C785        C786   1.409       .  A
C786        N787   1.428       .  S
N787        O791   1.260       .  A
N787       O2328   1.262       .  A
N790        O794   1.262       .  A
N790        O793   1.262       .  A
O792       N2323   1.262       .  A
C795        C796   1.406       .  A
C795        C800   1.403       .  A
C795        H802   1.084       .  S
C796        C797   1.411       .  A
C797        C798   1.400       .  A
C797        N804   1.429       .  S
C798        C799   1.403       .  A
C798        H803   1.084       .  S
C799        C800   1.411       .  A
C800        N801   1.430       .  S
N801        O805   1.262       .  A
N801        O806   1.262       .  A
N804        O808   1.262       .  A
N804        O807   1.262       .  A
C809        C810   1.404       .  A
C809        C814   1.396       .  A
C809        H816   1.084       .  S
C810        C811   1.414       .  A
C811        C812   1.406       .  A
C811        N818   1.429       .  S
C812        C813   1.408       .  A
C812        H817   1.083       .  S
C813        C814   1.415       .  A
C814        N815   1.430       .  S
N815        O819   1.262       .  A
N815        O820   1.262       .  A
N818        O822   1.262       .  A
N818        O821   1.262       .  A
C823        C824   1.404       .  A
C823        C828   1.403       .  A
C823        H830   1.084       .  S
C824        C825   1.412       .  A
C825        C826   1.400       .  A
C825        N832   1.428       .  S
C826        C827   1.405       .  A
C826        H831   1.084       .  S
C827        C828   1.415       .  A
C828        N829   1.429       .  S
N829        O833   1.262       .  A
N829        O834   1.262       .  A
N832        O836   1.261       .  A
N832        O835   1.262       .  A
C837        C838   1.403       .  A
C837        C842   1.398       .  A
C837        H844   1.084       .  S
C838        C839   1.411       .  A
C839        C840   1.400       .  A
C839        N846   1.429       .  S
C840        C841   1.402       .  A
C840        H845   1.084       .  S
C841        C842   1.409       .  A
C842        N843   1.429       .  S
N843        O847   1.262       .  A
N843        O848   1.262       .  A
N846        O850   1.262       .  A
N846        O849   1.262       .  A
C851        C852   1.402       .  A
C851        C856   1.399       .  A
C851        H858   1.084       .  S
C852        C853   1.409       .  A
C853        C854   1.397       .  A
C853        N860   1.430       .  S
C854        C855   1.404       .  A
C854        H859   1.084       .  S
C855        C856   1.410       .  A
C856        N857   1.429       .  S
N857        O861   1.262       .  A
N857        O862   1.262       .  A
N860        O864   1.262       .  A
N860        O863   1.262       .  A
C865        C866   1.403       .  A
C865       C2406   1.401       .  A
C865       H2408   1.084       .  S
C866        C867   1.411       .  A
C867        C868   1.400       .  A
C867        N874   1.428       .  S
C868        C869   1.405       .  A
C868        H873   1.084       .  S
C869       C1864   1.485       .  S
C869       C2406   1.414       .  A
C870       C2401   1.397   1_554  A
C870       C2405   1.412   1_554  A
C870        N871   1.429       .  S
N871        O875   1.262       .  A
N871        O876   1.260       .  A
H872       C2401   1.084       .  S
N874        O878   1.260       .  A
N874        O877   1.262       .  A
C879        C880   1.402       .  A
C879        C884   1.399       .  A
C879        H886   1.082       .  S
C880        C881   1.407       .  A
C881        C882   1.407       .  A
C881        N888   1.428       .  S
C882        C883   1.410       .  A
C882        H887   1.083       .  S
C883        C884   1.414       .  A
C884        N885   1.430       .  S
N885        O889   1.262       .  A
N885        O890   1.262       .  A
N888        O892   1.262       .  A
N888        O891   1.262       .  A
C893        C894   1.404       .  A
C893        C898   1.393       .  A
C893        H900   1.084       .  S
C894        C895   1.415       .  A
C895        C896   1.399       .  A
C895        N902   1.429       .  S
C896        C897   1.399       .  A
C896        H901   1.084       .  S
C897        C898   1.406       .  A
C898        N899   1.430       .  S
N899        O903   1.261       .  A
N899        O904   1.262       .  A
N902        O906   1.262       .  A
N902        O905   1.262       .  A
C907        C908   1.401       .  A
C907        C912   1.398       .  A
C907        H914   1.084       .  S
C908        C909   1.409       .  A
C909        C910   1.397       .  A
C909        N916   1.427       .  S
C910        C911   1.400       .  A
C910        H915   1.084   1_554  S
C911       C1833   1.469   1_554  S
C911        C912   1.412       .  A
C912        N913   1.429       .  S
N913        O917   1.262       .  A
N913       O2454   1.261       .  A
N916        O920   1.262       .  A
N916        O919   1.262       .  A
O918       N2449   1.262       .  A
C921        C922   1.398       .  A
C921        C926   1.391       .  A
C921        H928   1.084       .  S
C922        C923   1.408       .  A
C923        C924   1.409       .  A
C923        N930   1.428       .  S
C924        C925   1.407       .  A
C924        H929   1.084       .  S
C925        C926   1.413       .  A
C926        N927   1.432       .  S
N927        O931   1.262       .  A
N927        O932   1.261       .  A
N930        O934   1.262       .  A
N930        O933   1.262       .  A
C935        C936   1.404       .  A
C935        C940   1.400       .  A
C935        H942   1.081       .  S
C936        C937   1.410       .  A
C937        C938   1.403       .  A
C937        N944   1.430       .  S
C938        C939   1.406       .  A
C938        H943   1.084       .  S
C939        C940   1.407       .  A
C940        N941   1.429       .  S
N941        O945   1.261       .  A
N941        O946   1.261       .  A
N944        O948   1.262       .  A
N944        O947   1.262       .  A
C949        C950   1.398       .  A
C949        C954   1.390       .  A
C949        H956   1.085       .  S
C950        C951   1.414       .  A
C951        C952   1.411       .  A
C951        N958   1.427       .  S
C952        C953   1.407       .  A
C952        H957   1.083       .  S
C953        C954   1.409       .  A
C954        N955   1.423       .  S
N955        O959   1.260       .  A
N955        O960   1.262       .  A
N958        O962   1.262       .  A
N958        O961   1.262       .  A
C963        C964   1.408       .  A
C963        C968   1.411       .  A
C963        H970   1.084       .  S
C964        C965   1.415       .  A
C965        C966   1.391       .  A
C965        N972   1.433       .  S
C966        C967   1.404       .  A
C966        H971   1.084       .  S
C967        C968   1.415       .  A
C968        N969   1.428       .  S
N969        O973   1.262   1_554  A
N969        O974   1.262       .  A
N972        O976   1.262       .  A
N972        O975   1.262       .  A
C977        C978   1.403       .  A
C977        C982   1.399       .  A
C977        H984   1.084       .  S
C978        C979   1.411       .  A
C979        C980   1.399       .  A
C979        N986   1.429       .  S
C980        C981   1.402       .  A
C980        H985   1.084       .  S
C981        C982   1.410       .  A
C982        N983   1.429       .  S
N983        O987   1.262       .  A
N983        O988   1.262       .  A
N986        O990   1.262       .  A
N986        O989   1.262       .  A
C991        C992   1.402       .  A
C991        C996   1.405       .  A
C991        H998   1.084       .  S
C992        C993   1.409       .  A
C993        C994   1.396       .  A
C993       N1000   1.425       .  S
C994        C995   1.399       .  A
C994        H999   1.084       .  S
C995        C996   1.416       .  A
C996        N997   1.430       .  S
N997       O1001   1.262       .  A
N997       O1002   1.262       .  A
N1000      O1004   1.260       .  A
N1000      O1003   1.262       .  A
C1005      C1006   1.405       .  A
C1005      C1010   1.404       .  A
C1005      H1012   1.084       .  S
C1006      C1007   1.417       .  A
C1007      C1008   1.396       .  A
C1007      N1014   1.430       .  S
C1008      C1009   1.404       .  A
C1008      H1013   1.084       .  S
C1009      C1010   1.415       .  A
C1010      N1011   1.428       .  S
N1011      O2551   1.262       .  A
N1011      O2552   1.262       .  A
N1014      O1018   1.261       .  A
N1014      O1017   1.262       .  A
O1015      N2547   1.262       .  A
O1016      N2547   1.262       .  A
C1019      C1020   1.402       .  A
C1019      C1024   1.396       .  A
C1019      H1026   1.084       .  S
C1020      C1021   1.415       .  A
C1021      C1022   1.412       .  A
C1021      N1028   1.429       .  S
C1022      C1023   1.407       .  A
C1022      H1027   1.084       .  S
C1023      C1024   1.413       .  A
C1024      N1025   1.431       .  S
N1025      O1029   1.262       .  A
N1025      O1030   1.262       .  A
N1028      O1032   1.262       .  A
N1028      O1031   1.262       .  A
C1033      C1034   1.399       .  A
C1033      C1038   1.394       .  A
C1033      H1040   1.081       .  S
C1034      C1035   1.406       .  A
C1035      C1036   1.404       .  A
C1035      N1042   1.429       .  S
C1036      C1037   1.410       .  A
C1036      H1041   1.084       .  S
C1037      C1775   1.482       .  S
C1037      C1038   1.414       .  A
C1038      N1039   1.431       .  S
N1039      O1043   1.262       .  A
N1039      O1044   1.262       .  A
N1042      O1046   1.261       .  A
N1042      O1045   1.262       .  A
C1047      C1048   1.398       .  A
C1047      C1052   1.403       .  A
C1047      H1054   1.084       .  S
C1048      C1049   1.412       .  A
C1049      C1050   1.393       .  A
C1049      N1056   1.434       .  S
C1050      C1051   1.400       .  A
C1050      H1055   1.085       .  S
C1051      C1052   1.410       .  A
C1052      N1053   1.422       .  S
N1053      O1057   1.262       .  A
N1053      O1058   1.262       .  A
N1056      O1060   1.262       .  A
N1056      O1059   1.262       .  A
C1061      C1062   1.406       .  A
C1061      C1066   1.401       .  A
C1061      H1068   1.084       .  S
C1062      C1063   1.413       .  A
C1063      C1064   1.403       .  A
C1063      N1070   1.429       .  S
C1064      C1065   1.403       .  A
C1064      H1069   1.083       .  S
C1065      C1066   1.410       .  A
C1066      N1067   1.431       .  S
N1067      O1071   1.262       .  A
N1067      O1072   1.262       .  A
N1070      O1074   1.262       .  A
N1070      O1073   1.262       .  A
C1075      C1076   1.406       .  A
C1075      C1080   1.409       .  A
C1075      H1082   1.083       .  S
C1076      C1077   1.412       .  A
C1077      C1078   1.395       .  A
C1077      N1084   1.429       .  S
C1078      C1079   1.401       .  A
C1078      H1083   1.084       .  S
C1079      C1080   1.411       .  A
C1080      N1081   1.428       .  S
N1081      O1085   1.262       .  A
N1081      O1086   1.262       .  A
N1084      O1088   1.262       .  A
N1084      O1087   1.261       .  A
C1089      C1090   1.402       .  A
C1089      C1094   1.399       .  A
C1089      H1096   1.082       .  S
C1090      C1091   1.410       .  A
C1091      C1092   1.406       .  A
C1091      N1098   1.430       .  S
C1092      C1093   1.409       .  A
C1092      H1097   1.084       .  S
C1093      C1094   1.414       .  A
C1094      N1095   1.430       .  S
N1095      O1099   1.262       .  A
N1095      O1100   1.261       .  A
N1098      O1102   1.262       .  A
N1098      O1101   1.262       .  A
C1103      C1104   1.401       .  A
C1103      C1108   1.396       .  A
C1103      H1110   1.084       .  S
C1104      C1105   1.416       .  A
C1105      C1106   1.403       .  A
C1105      N1112   1.429       .  S
C1106      C1107   1.400       .  A
C1106      H1111   1.084       .  S
C1107      C1108   1.410       .  A
C1108      N1109   1.428       .  S
N1109      O1113   1.261       .  A
N1109      O1114   1.262       .  A
N1112      O1116   1.261       .  A
N1112      O1115   1.262       .  A
C1117      C1118   1.402       .  A
C1117      C1122   1.398       .  A
C1117      H1124   1.084       .  S
C1118      C1756   1.475   1_554  S
C1118      C1119   1.412       .  A
C1119      C1120   1.399       .  A
C1119      N1126   1.427       .  S
C1120      C1121   1.400       .  A
C1120      H1125   1.084       .  S
C1121      C1122   1.410       .  A
C1122      N1123   1.429       .  S
N1123      O1127   1.261       .  A
N1123      O1128   1.262       .  A
N1126      O1130   1.260       .  A
N1126      O2665   1.262       .  A
O1129      N2662   1.262       .  A
C1131      C1132   1.404       .  A
C1131      C1136   1.400       .  A
C1131      H1138   1.084       .  S
C1132      C1133   1.410       .  A
C1133      C1134   1.400       .  A
C1133      N1140   1.429       .  S
C1134      C1135   1.407       .  A
C1134      H1139   1.083       .  S
C1135      C1136   1.411       .  A
C1136      N1137   1.428       .  S
N1137      O1141   1.262       .  A
N1137      O1142   1.261       .  A
N1140      O1144   1.261       .  A
N1140      O1143   1.262       .  A
C1145      C1146   1.407       .  A
C1145      C1150   1.402       .  A
C1145      H1152   1.084       .  S
C1146      C1147   1.417       .  A
C1147      C1148   1.406       .  A
C1147      N1154   1.430       .  S
C1148      C1149   1.407       .  A
C1148      H1153   1.084       .  S
C1149      C1150   1.414       .  A
C1150      N1151   1.429       .  S
N1151      O1155   1.262       .  A
N1151      O1156   1.262       .  A
N1154      O1158   1.262       .  A
N1154      O1157   1.262       .  A
C1159      C1160   1.405       .  A
C1159      C1164   1.406       .  A
C1159      H1166   1.084       .  S
C1160      C1161   1.417       .  A
C1161      C1162   1.402       .  A
C1161      N1168   1.429       .  S
C1162      C1163   1.403       .  A
C1162      H1167   1.084       .  S
C1163      C1164   1.415       .  A
C1164      N1165   1.428       .  S
N1165      O1169   1.262       .  A
N1165      O1170   1.261       .  A
N1168      O1172   1.262       .  A
N1168      O1171   1.262       .  A
C1173      C1174   1.399       .  A
C1173      C1178   1.400       .  A
C1173      H1180   1.084       .  S
C1174      C1175   1.408       .  A
C1175      C1176   1.399       .  A
C1175      N1182   1.429       .  S
C1176      C1177   1.405       .  A
C1176      H1181   1.084       .  S
C1177      C1178   1.414       .  A
C1178      N1179   1.428       .  S
N1179      O1183   1.262       .  A
N1179      O1184   1.260       .  A
N1182      O1186   1.262       .  A
N1182      O1185   1.262       .  A
C1187      C1188   1.404       .  A
C1187      C2728   1.401       .  A
C1187      H1194   1.083       .  S
C1188      C1189   1.411       .  A
C1189      C2726   1.395   1_554  A
C1189      N1196   1.429       .  S
C1190      C1191   1.402       .  A
C1190      C2725   1.396       .  A
C1190      H1195   1.084       .  S
C1191      C1192   1.409       .  A
C1192      C2723   1.394       .  A
C1192      N1193   1.430       .  S
N1193      O1197   1.262       .  A
N1193      O1198   1.262       .  A
N1196      O1200   1.261       .  A
N1196      O1199   1.262       .  A
C1201      C1202   1.405       .  A
C1201      C1206   1.400       .  A
C1201      H1208   1.084       .  S
C1202      C1203   1.415       .  A
C1203      C1204   1.405       .  A
C1203      N1210   1.429       .  S
C1204      C1205   1.407       .  A
C1204      H1209   1.084       .  S
C1205      C1206   1.414       .  A
C1206      N1207   1.429       .  S
N1207      O1211   1.262       .  A
N1207      O1212   1.261       .  A
N1210      O1214   1.262       .  A
N1210      O1213   1.261       .  A
C1215      C1216   1.403       .  A
C1215      C1220   1.391   1_545  A
C1215      H1222   1.084       .  S
C1216      C1217   1.418       .  A
C1217      C1218   1.408   1_545  A
C1217      N1224   1.430       .  S
C1218      C1219   1.405       .  A
C1218      H1223   1.084       .  S
C1219      C1220   1.415       .  A
C1220      N1221   1.433       .  S
N1221      O1225   1.262       .  A
N1221      O1226   1.262       .  A
N1224      O1228   1.262       .  A
N1224      O1227   1.262       .  A
C1229      C1230   1.405       .  A
C1229      C1234   1.399       .  A
C1229      H1236   1.084       .  S
C1230      C1231   1.417       .  A
C1231      C1232   1.403       .  A
C1231      N1238   1.429       .  S
C1232      C1233   1.405       .  A
C1232      H1237   1.084       .  S
C1233      C1234   1.413       .  A
C1234      N1235   1.429       .  S
N1235      O1239   1.262       .  A
N1235      O1240   1.262       .  A
N1238      O1242   1.262       .  A
N1238      O1241   1.262       .  A
C1243      C1244   1.409       .  A
C1243      C1248   1.415   1_545  A
C1243      H1250   1.083       .  S
C1244      C1245   1.409       .  A
C1245      C1246   1.393   1_545  A
C1245      N1252   1.421       .  S
C1246      C1247   1.400       .  A
C1246      H1251   1.084       .  S
C1247      C1248   1.416       .  A
C1248      N1249   1.427       .  S
N1249      O1253   1.262       .  A
N1249      O1254   1.262       .  A
N1252      O1256   1.261       .  A
N1252      O1255   1.260       .  A
C1257      C1258   1.401       .  A
C1257      C2798   1.403   1_554  A
C1257      H1264   1.084       .  S
C1258      C1259   1.413       .  A
C1259      C2796   1.400   1_554  A
C1259      N1266   1.430       .  S
C1260      C1261   1.403       .  A
C1260      C2795   1.399       .  A
C1260      H1265   1.084       .  S
C1261      C1262   1.415       .  A
C1262      C2793   1.406       .  A
C1262      N1263   1.429       .  S
N1263      O1267   1.261       .  A
N1263      O1268   1.262       .  A
N1266      O1270   1.262       .  A
N1266      O1269   1.262       .  A
C1271      C1272   1.405       .  A
C1271      C1276   1.402       .  A
C1271      H1278   1.082       .  S
C1272      C1273   1.411       .  A
C1273      C1274   1.395       .  A
C1273      N1280   1.430       .  S
C1274      C1275   1.401       .  A
C1274      H1279   1.083       .  S
C1275      C1276   1.407       .  A
C1276      N1277   1.428       .  S
N1277      O1281   1.262       .  A
N1277      O1282   1.262       .  A
N1280      O1284   1.261       .  A
N1280      O1283   1.262       .  A
C1285      C1286   1.401       .  A
C1285      C1290   1.390       .  A
C1285      H1292   1.084       .  S
C1286      C1287   1.415       .  A
C1287      C1288   1.399       .  A
C1287      N1294   1.429       .  S
C1288      C1289   1.403       .  A
C1288      H1293   1.084       .  S
C1289      C1290   1.416       .  A
C1290      N1291   1.431       .  S
N1291      O1295   1.262       .  A
N1291      O1296   1.262       .  A
N1294      O1298   1.262       .  A
N1294      O1297   1.261       .  A
C1299      C1300   1.402       .  A
C1299      C1304   1.397       .  A
C1299      H1306   1.083       .  S
C1300      C1301   1.409       .  A
C1301      C1302   1.402       .  A
C1301      N1308   1.419       .  S
C1302      C1303   1.396       .  A
C1302      H1307   1.084       .  S
C1303      C1304   1.414       .  A
C1304      N1305   1.438       .  S
N1305      O1309   1.263       .  A
N1305      O1310   1.262       .  A
N1308      O1312   1.262       .  A
N1308      O1311   1.262       .  A
C1313      C1314   1.410       .  A
C1313      C1318   1.406       .  A
C1313      H1320   1.078       .  S
C1314      C1315   1.408       .  A
C1315      C1316   1.399       .  A
C1315      N1322   1.431       .  S
C1316      C1317   1.406       .  A
C1316      H1321   1.052       .  S
C1317      C1318   1.408       .  A
C1318      N1319   1.431       .  S
N1319      O1323   1.262       .  A
N1319      O1324   1.261       .  A
N1322      O1326   1.262       .  A
N1322      O1325   1.262       .  A
C1327      C1328   1.407       .  A
C1327      C1332   1.403       .  A
C1327      H1334   1.083       .  S
C1328      C1329   1.418       .  A
C1329      C1330   1.408       .  A
C1329      N1336   1.429       .  S
C1330      C1331   1.407       .  A
C1330      H1335   1.084       .  S
C1331      C1332   1.416       .  A
C1332      N1333   1.429       .  S
N1333      O1337   1.262       .  A
N1333      O1338   1.262   1_554  A
N1336      O1340   1.262       .  A
N1336      O1339   1.262       .  A
C1341      C1342   1.406       .  A
C1341      C1346   1.400       .  A
C1341      H1348   1.084       .  S
C1342      C1343   1.417       .  A
C1343      C1344   1.400       .  A
C1343      N2886   1.431       .  S
C1344      C1345   1.402       .  A
C1344      H1349   1.084       .  S
C1345      C1346   1.409       .  A
C1346      N1347   1.429       .  S
N1347      O1351   1.262       .  A
N1347      O1352   1.260       .  A
N1350      C2879   1.431   1_554  S
N1350      O1354   1.261       .  A
N1350      O1353   1.262       .  A
C1355      C1356   1.408       .  A
C1355      C1360   1.411       .  A
C1355      H1362   1.084       .  S
C1356      C1357   1.411       .  A
C1357      C1358   1.395       .  A
C1357      N1364   1.421       .  S
C1358      C1359   1.394       .  A
C1358      H1363   1.085       .  S
C1359      C1360   1.414       .  A
C1360      N1361   1.430       .  S
N1361      O2901   1.262   1_554  A
N1361      O2902   1.261   1_554  A
N1364      O1368   1.262       .  A
N1364      O1367   1.261       .  A
O1365      N2897   1.262       .  A
O1366      N2897   1.260       .  A
C1369      C1370   1.403       .  A
C1369      C1374   1.401       .  A
C1369      H1376   1.084       .  S
C1370      C1371   1.411       .  A
C1371      C1372   1.400       .  A
C1371      N1378   1.429       .  S
C1372      C1373   1.403       .  A
C1372      H1377   1.084       .  S
C1373      C1374   1.411       .  A
C1374      N1375   1.429       .  S
N1375      O1379   1.262       .  A
N1375      O1380   1.262       .  A
N1378      O1382   1.262       .  A
N1378      O1381   1.262       .  A
C1383      C1384   1.405       .  A
C1383      C1388   1.401       .  A
C1383      H1390   1.084       .  S
C1384      C1385   1.411       .  A
C1385      C1386   1.399       .  A
C1385      N1392   1.429       .  S
C1386      C1387   1.402       .  A
C1386      H1391   1.084       .  S
C1387      C1388   1.408       .  A
C1388      N1389   1.428       .  S
N1389      O1393   1.262       .  A
N1389      O1394   1.262       .  A
N1392      O1396   1.262       .  A
N1392      O1395   1.262       .  A
C1397      C1398   1.407       .  A
C1397      C1402   1.400       .  A
C1397      H1404   1.083       .  S
C1398      C1399   1.416       .  A
C1399      C1400   1.405       .  A
C1399      N1406   1.429       .  S
C1400      C1401   1.409       .  A
C1400      H1405   1.083       .  S
C1401      C1402   1.415       .  A
C1402      N1403   1.429       .  S
N1403      O1407   1.262       .  A
N1403      O1408   1.262       .  A
N1406      O2946   1.262       .  A
N1406      O1409   1.262       .  A
O1410      N2942   1.262   1_554  A
C1411      C1412   1.405       .  A
C1411      C1416   1.392   1_565  A
C1411      H1418   1.084       .  S
C1412      C1413   1.419   1_556  A
C1413      C1414   1.410   1_565  A
C1413      N1420   1.430       .  S
C1414      C1415   1.404       .  A
C1414      H1419   1.084       .  S
C1415      C1416   1.411   1_554  A
C1416      N2953   1.431       .  S
N1417      C2952   1.430       .  S
N1417      O2957   1.262       .  A
N1417      O1422   1.262       .  A
N1420      O2960   1.262   1_554  A
N1420      O1423   1.262       .  A
O1421      N2953   1.262       .  A
O1424      N2956   1.262       .  A
C1425      C1426   1.405       .  A
C1425      C1430   1.402       .  A
C1425      H1432   1.084       .  S
C1426      C1427   1.415       .  A
C1427      C1428   1.402       .  A
C1427      N1434   1.431       .  S
C1428      C1429   1.403       .  A
C1428      H1433   1.084       .  S
C1429      C1430   1.412       .  A
C1430      N1431   1.429       .  S
N1431      O1435   1.262       .  A
N1431      O1436   1.259       .  A
N1434      O2974   1.261   1_554  A
N1434      O2973   1.262   1_554  A
O1437      N2970   1.262       .  A
O1438      N2970   1.261       .  A
C1439      C1440   1.403       .  A
C1439      C1444   1.403       .  A
C1439      H1446   1.084       .  S
C1440      C1441   1.415       .  A
C1441      C1442   1.403       .  A
C1441      N2984   1.430       .  S
C1442      C1443   1.403       .  A
C1442      H1447   1.084       .  S
C1443      C1444   1.413       .  A
C1444      N1445   1.429       .  S
N1445      O1449   1.262       .  A
N1445      O1450   1.260       .  A
N1448      C2977   1.430   1_554  S
N1448      O1452   1.261       .  A
N1448      O1451   1.262       .  A
C1453      C1454   1.409       .  A
C1453      C1458   1.406       .  A
C1453      H1460   1.083       .  S
C1454      C1455   1.416       .  A
C1455      C1456   1.400       .  A
C1455      N1462   1.429       .  S
C1456      C1457   1.407       .  A
C1456      H1461   1.083       .  S
C1457      C1458   1.416       .  A
C1458      N1459   1.429       .  S
N1459      O1463   1.262       .  A
N1459      O1464   1.262       .  A
N1462      O1466   1.262       .  A
N1462      O1465   1.262       .  A
C1467      C1468   1.409       .  A
C1467      C1472   1.410   1_565  A
C1467      H1474   1.084       .  S
C1468      C1469   1.415       .  A
C1469      C1470   1.392   1_565  A
C1469      N1476   1.431       .  S
C1470      C1471   1.402       .  A
C1470      H1475   1.084       .  S
C1471      C1472   1.412       .  A
C1472      N1473   1.429       .  S
N1473      O1477   1.262       .  A
N1473      O1478   1.262       .  A
N1476      O1480   1.262       .  A
N1476      O1479   1.262       .  A
C1481      C1482   1.404       .  A
C1481      C1486   1.399       .  A
C1481      H1488   1.084       .  S
C1482      C1483   1.408       .  A
C1483      C1484   1.396       .  A
C1483      N1490   1.430       .  S
C1484      C1485   1.406       .  A
C1484      H1489   1.084       .  S
C1485      C1486   1.413       .  A
C1486      N1487   1.431       .  S
N1487      O1491   1.261       .  A
N1487      O1492   1.262       .  A
N1490      O1494   1.261       .  A
N1490      O1493   1.262       .  A
C1495      C1496   1.402       .  A
C1495      C1500   1.398       .  A
C1495      H1502   1.084       .  S
C1496      C1497   1.409       .  A
C1497      C1498   1.397       .  A
C1497      N1504   1.429       .  S
C1498      C1499   1.401       .  A
C1498      H1503   1.084       .  S
C1499      C1500   1.411       .  A
C1500      N1501   1.429       .  S
N1501      O1505   1.262       .  A
N1501      O1506   1.261       .  A
N1504      O1508   1.262       .  A
N1504      O1507   1.262       .  A
C1509      C1510   1.398       .  A
C1509      C1514   1.396       .  A
C1509      H1516   1.084       .  S
C1510      C1511   1.407       .  A
C1511      C1512   1.397       .  A
C1511      N1518   1.431       .  S
C1512      C1513   1.405       .  A
C1512      H1517   1.084       .  S
C1513      C1514   1.411       .  A
C1514      N1515   1.428       .  S
N1515      O1519   1.261       .  A
N1515      O1520   1.262       .  A
N1518      O1522   1.262       .  A
N1518      O1521   1.262       .  A
C1523      C1524   1.404       .  A
C1523      C1528   1.404       .  A
C1523      H1530   1.084       .  S
C1524      C1525   1.407       .  A
C1525      C1526   1.405       .  A
C1525      N1532   1.429       .  S
C1526      C1527   1.408       .  A
C1526      H1531   1.084       .  S
C1527      C1528   1.412       .  A
C1528      N1529   1.430       .  S
N1529      O1533   1.262       .  A
N1529      O1534   1.262       .  A
N1532      O1536   1.262       .  A
N1532      O1535   1.260       .  A
Fe1537     O1553   2.053       .  S
Fe1537     O1543   2.091       .  S
Fe1537     O1550   2.099       .  S
Fe1537     O1542   2.050       .  S
Fe1537     O1548   1.948       .  S
Fe1538     O1541   2.055       .  S
Fe1538     O1545   2.075       .  S
Fe1538     O1549   2.045       .  S
Fe1538     O1554   2.078       .  S
Fe1538     O1548   1.938       .  S
Fe1539     O1557   2.101       .  S
Fe1539     O1544   2.059       .  S
Fe1539     O1551   2.053       .  S
Fe1539     O1540   2.081       .  S
Fe1539     O1548   1.945       .  S
O1540      C1547   1.271       .  A
O1541      C1555   1.268       .  A
O1542      C1547   1.267       .  A
O1543      C1546   1.276       .  A
O1544      C1556   1.268       .  A
O1545      C1558   1.271       .  A
C1546      O1551   1.270       .  A
C1546      C2990   1.488       .  S
C1547      C3035   1.470       .  S
O1549      C1552   1.267       .  A
O1550      C1552   1.275       .  A
C1552      C3004   1.488       .  S
O1553      C1558   1.268       .  A
O1554      C1556   1.271       .  A
C1555      O1557   1.275       .  A
C1555      C3063   1.487       .  S
C1556      C3018   1.471       .  S
C1558      C3046   1.471       .  S
Fe1559     O1575   2.060       .  S
Fe1559     O1565   2.093   1_556  S
Fe1559     O1572   2.091       .  S
Fe1559     O1570   1.958       .  S
Fe1560     O1563   2.061       .  S
Fe1560     O1567   2.075       .  S
Fe1560     O1571   2.046       .  S
Fe1560     O1570   1.939       .  S
Fe1561     O1566   2.065       .  S
Fe1561     O1573   2.056       .  S
Fe1561     O1562   2.074       .  S
O1562      C1569   1.269       .  A
O1563      C1577   1.268       .  A
O1564      C1569   1.267       .  A
O1565      C1568   1.276   1_554  A
O1566      C1578   1.273       .  A
O1567      C1580   1.273       .  A
C1568      C2934   1.492       .  S
C1569      C3049   1.471       .  S
C1574      C2948   1.484       .  S
O1575      C1580   1.269       .  A
O1576      C1578   1.274       .  A
C1577      O1579   1.267       .  A
C1577      C2976   1.483       .  S
C1578      C2962   1.485       .  S
C1580      C3032   1.471       .  S
Fe1581     O1597   2.066       .  S
Fe1581     O1587   2.113       .  S
Fe1581     O1594   2.105       .  S
Fe1581     O1592   1.954       .  S
Fe1582     O1585   2.054       .  S
Fe1582     O1589   2.072       .  S
Fe1582     O1593   2.044       .  S
Fe1582     O1592   1.945       .  S
Fe1583     O1588   2.075       .  S
Fe1583     O1584   2.069       .  S
O1584      C1591   1.266       .  A
O1585      C1599   1.267       .  A
O1586      C1591   1.264       .  A
O1587      C1590   1.282       .  A
O1588      C1600   1.275       .  A
O1589      C1602   1.271       .  A
C1590      O1595   1.277       .  A
C1590      C2864   1.501       .  S
C1591      C2906   1.469       .  S
O1593      C1596   1.267       .  A
O1594      C1596   1.277       .  A
C1596      C2951   1.492       .  S
O1597      C1602   1.270       .  A
O1598      C1600   1.273   1_554  A
C1599      O1601   1.266       .  A
C1599      C2895   1.482       .  S
C1600      C2878   1.490       .  S
C1602      C2920   1.474       .  S
Fe1603     O1619   2.048       .  S
Fe1603     O1609   2.114       .  S
Fe1603     O1616   2.112       .  S
Fe1603     O1608   2.057       .  S
Fe1603     O1614   1.940       .  S
Fe1604     O1607   2.057       .  S
Fe1604     O1611   2.089       .  S
Fe1604     O1615   2.031       .  S
Fe1604     O1620   2.109       .  S
Fe1604     O1614   1.925       .  S
Fe1605     O1623   2.093       .  S
Fe1605     O1610   2.034       .  S
Fe1605     O1617   2.020       .  S
Fe1605     O1606   2.085       .  S
Fe1605     O1614   1.937       .  S
O1606      C1613   1.269       .  A
O1607      C1621   1.264       .  A
O1608      C1613   1.267       .  A
O1609      C1612   1.282       .  A
O1610      C1622   1.267       .  A
O1611      C1624   1.275       .  A
C1612      O1617   1.265       .  A
C1612      C2825   1.481       .  S
C1613      C2923   1.474       .  S
O1615      C1618   1.267       .  A
O1616      C1618   1.277       .  A
C1618      C3007   1.490       .  S
O1619      C1624   1.268       .  A
O1620      C1622   1.280       .  A
C1621      O1623   1.271       .  A
C1621      C2853   1.477       .  S
C1622      C2839   1.469       .  S
C1624      C2909   1.468       .  S
Fe1625     O1641   2.053       .  S
Fe1625     O1631   2.106       .  S
Fe1625     O1638   2.115       .  S
Fe1625     O1630   2.054       .  S
Fe1625     O1636   1.957       .  S
Fe1626     O1629   2.065       .  S
Fe1626     O1633   2.105       .  S
Fe1626     O1637   2.070       .  S
Fe1626     O1642   2.106       .  S
Fe1626     O1636   1.946       .  S
Fe1627     O1645   2.101       .  S
Fe1627     O1632   2.048       .  S
Fe1627     O1639   2.051       .  S
Fe1627     O1628   2.099       .  S
Fe1627     O1636   1.951       .  S
O1628      C1635   1.276       .  A
O1629      C1643   1.269       .  A
O1630      C1635   1.271       .  A
O1631      C1634   1.274       .  A
O1632      C1644   1.268       .  A
O1633      C1646   1.280       .  A
C1634      O1639   1.267       .  A
C1634      C2766   1.496       .  S
C1635      C2811   1.476       .  S
O1637      C1640   1.268       .  A
O1638      C1640   1.275       .  A
C1640      C2780   1.501       .  S
O1641      C1646   1.271       .  A
O1642      C1644   1.278       .  A
C1643      O1645   1.275       .  A
C1643      C2892   1.486       .  S
C1644      C2836   1.482       .  S
C1646      C2794   1.479       .  S
Fe1647     O1663   2.073       .  S
Fe1647     O1653   2.097       .  S
Fe1647     O1660   2.094       .  S
Fe1647     O1652   2.078       .  S
Fe1647     O1658   1.957       .  S
Fe1648     O1651   2.056       .  S
Fe1648     O1655   2.077       .  S
Fe1648     O1659   2.046       .  S
Fe1648     O1664   2.095       .  S
Fe1648     O1658   1.940       .  S
Fe1649     O1667   2.083       .  S
Fe1649     O1654   2.055       .  S
Fe1649     O1661   2.053       .  S
Fe1649     O1650   2.073       .  S
Fe1649     O1658   1.949       .  S
O1650      C1657   1.270       .  A
O1651      C1665   1.267       .  A
O1652      C1657   1.271       .  A
O1653      C1656   1.275       .  A
O1654      C1666   1.271       .  A
O1655      C1668   1.274       .  A
C1656      O1661   1.270       .  A
C1656      C2738   1.489       .  S
C1657      C2797   1.479       .  S
O1659      C1662   1.268       .  A
O1660      C1662   1.270       .  A
C1662      C2752   1.490       .  S
O1663      C1668   1.274       .  A
O1664      C1666   1.276       .  A
C1665      O1667   1.270       .  A
C1665      C2850   1.486       .  S
C1666      C2881   1.482       .  S
C1668      C2808   1.481       .  S
Fe1669     O1685   2.062       .  S
Fe1669     O1675   2.107       .  S
Fe1669     O1682   2.112       .  S
Fe1669     O1674   2.045       .  S
Fe1669     O1680   1.959       .  S
Fe1670     O1673   2.061       .  S
Fe1670     O1677   2.074       .  S
Fe1670     O1681   2.057       .  S
Fe1670     O1686   2.086       .  S
Fe1670     O1680   1.944       .  S
Fe1671     O1689   2.080       .  S
Fe1671     O1676   2.066       .  S
Fe1671     O1683   2.064       .  S
Fe1671     O1672   2.070       .  S
Fe1671     O1680   1.957       .  S
O1672      C1679   1.265       .  A
O1673      C1687   1.265       .  A
O1674      C1679   1.263       .  A
O1675      C1678   1.279       .  A
O1676      C1688   1.276       .  A
O1677      C1690   1.273       .  A
C1678      O1683   1.275       .  A
C1678      C2699   1.493       .  S
C1679      C2724   1.462       .  S
O1681      C1684   1.268       .  A
O1682      C1684   1.275       .  A
C1684      C2783   1.499       .  S
O1685      C1690   1.269       .  A
O1686      C1688   1.276       .  A
C1687      O1689   1.266       .  A
C1687      C3060   1.480       .  S
C1688      C2965   1.484       .  S
C1690      C2710   1.468       .  S
Fe1691     O1707   2.054       .  S
Fe1691     O1697   2.118       .  S
Fe1691     O1704   2.111       .  S
Fe1691     O1696   2.052       .  S
Fe1691     O1702   1.946       .  S
Fe1692     O1695   2.056       .  S
Fe1692     O1699   2.078       .  S
Fe1692     O1703   2.029       .  S
Fe1692     O1708   2.085       .  S
Fe1692     O1702   1.939       .  S
Fe1693     O1711   2.095       .  S
Fe1693     O1698   2.044       .  S
Fe1693     O1705   2.047       .  S
Fe1693     O1694   2.080       .  S
Fe1693     O1702   1.945       .  S
O1694      C1701   1.269       .  A
O1695      C1709   1.267       .  A
O1696      C1701   1.265       .  A
O1697      C1700   1.283       .  A
O1698      C1710   1.267       .  A
O1699      C1712   1.271       .  A
C1700      O1705   1.271       .  A
C1700      C2685   1.496       .  S
C1701      C2713   1.478       .  S
O1703      C1706   1.262       .  A
O1704      C1706   1.278       .  A
C1706      C2755   1.486       .  S
O1707      C1712   1.269       .  A
O1708      C1710   1.275       .  A
C1709      O1711   1.271       .  A
C1709      C2979   1.483       .  S
C1710      C3021   1.482       .  S
C1712      C2727   1.467       .  S
Fe1713     O1729   2.066       .  S
Fe1713     O1719   2.103       .  S
Fe1713     O1726   2.099       .  S
Fe1713     O1718   2.068       .  S
Fe1713     O1724   1.951       .  S
Fe1714     O1717   2.062       .  S
Fe1714     O1721   2.081       .  S
Fe1714     O1725   2.048       .  S
Fe1714     O1730   2.093       .  S
Fe1714     O1724   1.934       .  S
Fe1715     O1733   2.088       .  S
Fe1715     O1720   2.051       .  S
Fe1715     O1727   2.051       .  S
Fe1715     O1716   2.079       .  S
Fe1715     O1724   1.940       .  S
O1716      C1723   1.271       .  A
O1717      C1731   1.268       .  A
O1718      C1723   1.268       .  A
O1719      C1722   1.277       .  A
O1720      C1732   1.271       .  A
O1721      C1734   1.276       .  A
C1722      O1727   1.270       .  A
C1722      C2598   1.484       .  S
C1723      C2657   1.477       .  S
O1725      C1728   1.266       .  A
O1726      C1728   1.272       .  A
C1728      C2615   1.480       .  S
O1729      C1734   1.272       .  A
O1730      C1732   1.275       .  A
C1731      O1733   1.271       .  A
C1731      C2629   1.485       .  S
C1732      C2671   1.479       .  S
C1734      C2640   1.484       .  S
Fe1735     O1751   2.057       .  S
Fe1735     O1741   2.118       .  S
Fe1735     O1748   2.116       .  S
Fe1735     O1740   2.058       .  S
Fe1735     O1746   1.941       .  S
Fe1736     O1739   2.062       .  S
Fe1736     O1743   2.083       .  S
Fe1736     O1747   2.051       .  S
Fe1736     O1752   2.095       .  S
Fe1736     O1746   1.925       .  S
Fe1737     O1755   2.095       .  S
Fe1737     O1742   2.026       .  S
Fe1737     O1749   2.031       .  S
Fe1737     O1738   2.091       .  S
Fe1737     O1746   1.942       .  S
O1738      C1745   1.272       .  A
O1739      C1753   1.266       .  A
O1740      C1745   1.267       .  A
O1741      C1744   1.282       .  A
O1742      C1754   1.264       .  A
O1743      C1756   1.275       .  A
C1744      O1749   1.266       .  A
C1744      C2542   1.488       .  S
C1745      C2643   1.476       .  S
O1747      C1750   1.269       .  A
O1748      C1750   1.277       .  A
C1750      C2556   1.494       .  S
O1751      C1756   1.270       .  A
O1752      C1754   1.277       .  A
C1753      O1755   1.272       .  A
C1753      C2570   1.475       .  S
C1754      C2584   1.460       .  S
Fe1757     O1763   2.112       .  S
Fe1757     O1770   2.112       .  S
Fe1757     O1762   2.052       .  S
Fe1757     O1768   1.944       .  S
Fe1758     O1761   2.042       .  S
Fe1758     O1769   2.030       .  S
Fe1758     O1774   2.086       .  S
Fe1758     O1768   1.940       .  S
Fe1759     O1777   2.093       .  S
Fe1759     O1764   2.058       .  S
Fe1759     O1771   2.064       .  S
Fe1759     O1760   2.085       .  S
Fe1759     O1768   1.944       .  S
O1760      C1767   1.273       .  A
O1761      C1775   1.265       .  A
O1762      C1767   1.266       .  A
O1763      C1766   1.281       .  A
O1764      C1776   1.270       .  A
O1765      C1778   1.271       .  A
C1766      O1771   1.272       .  A
C1766      C2867   1.498       .  S
C1767      C2528   1.481       .  S
O1769      C1772   1.264       .  A
O1770      C1772   1.278       .  A
C1772      C2500   1.485       .  S
O1773      C1778   1.269       .  A
O1774      C1776   1.272       .  A
C1775      O1777   1.273       .  A
C1776      C2668   1.480       .  S
C1778      C2514   1.476       .  S
Fe1779     O1795   2.055       .  S
Fe1779     O1785   2.085       .  S
Fe1779     O1792   2.100       .  S
Fe1779     O1784   2.063       .  S
Fe1779     O1790   1.946       .  S
Fe1780     O1783   2.060       .  S
Fe1780     O1787   2.085       .  S
Fe1780     O1791   2.047       .  S
Fe1780     O1796   2.111       .  S
Fe1780     O1790   1.933       .  S
Fe1781     O1799   2.100       .  S
Fe1781     O1786   2.045       .  S
Fe1781     O1793   2.045       .  S
Fe1781     O1782   2.087       .  S
Fe1781     O1790   1.935       .  S
O1782      C1789   1.272       .  A
O1783      C1797   1.265       .  A
O1784      C1789   1.271       .  A
O1785      C1788   1.272       .  A
O1786      C1798   1.269       .  A
O1787      C1800   1.275       .  A
C1788      O1793   1.271       .  A
C1788      C2822   1.479       .  S
C1789      C2517   1.478       .  S
O1791      C1794   1.268       .  A
O1792      C1794   1.273       .  A
C1794      C2489   1.488       .  S
O1795      C1800   1.269       .  A
O1796      C1798   1.279       .  A
C1797      O1799   1.273       .  A
C1797      C2626   1.482       .  S
C1798      C2587   1.472       .  S
C1800      C2531   1.468       .  S
Fe1801     O1817   2.065       .  S
Fe1801     O1807   2.105       .  S
Fe1801     O1814   2.103       .  S
Fe1801     O1806   2.062       .  S
Fe1801     O1812   1.948       .  S
Fe1802     O1805   2.050       .  S
Fe1802     O1809   2.071       .  S
Fe1802     O1813   2.044       .  S
Fe1802     O1818   2.090       .  S
Fe1802     O1812   1.942       .  S
Fe1803     O1821   2.096       .  S
Fe1803     O1808   2.054       .  S
Fe1803     O1815   2.057       .  S
Fe1803     O1804   2.069       .  S
Fe1803     O1812   1.949       .  S
O1804      C1811   1.270       .  A
O1805      C1819   1.266       .  A
O1806      C1811   1.268       .  A
O1807      C1810   1.279       .  A
O1808      C1820   1.268       .  A
O1809      C1822   1.271       .  A
C1810      O1815   1.271       .  A
C1810      C2696   1.494       .  S
C1811      C2430   1.475       .  S
O1813      C1816   1.267       .  A
O1814      C1816   1.276       .  A
C1816      C2612   1.484       .  S
O1817      C1822   1.270       .  A
O1818      C1820   1.274       .  A
C1819      O1821   1.273       .  A
C1819      C2472   1.481       .  S
C1820      C2458   1.474       .  S
C1822      C2444   1.471       .  S
Fe1823     O1839   2.059       .  S
Fe1823     O1829   2.109       .  S
Fe1823     O1836   2.107       .  S
Fe1823     O1828   2.059       .  S
Fe1823     O1834   1.956       .  S
Fe1824     O1827   2.067       .  S
Fe1824     O1831   2.066       .  S
Fe1824     O1835   2.055       .  S
Fe1824     O1840   2.086       .  S
Fe1824     O1834   1.951       .  S
Fe1825     O1843   2.080       .  S
Fe1825     O1830   2.053       .  S
Fe1825     O1837   2.052       .  S
Fe1825     O1826   2.068       .  S
Fe1825     O1834   1.950       .  S
O1826      C1833   1.266       .  A
O1827      C1841   1.267       .  A
O1828      C1833   1.268       .  A
O1829      C1832   1.278       .  A
O1830      C1842   1.273       .  A
O1831      C1844   1.271       .  A
C1832      O1837   1.273       .  A
C1832      C2682   1.494       .  S
O1835      C1838   1.268       .  A
O1836      C1838   1.276       .  A
C1838      C2559   1.499       .  S
O1839      C1844   1.270       .  A
O1840      C1842   1.275       .  A
C1841      O1843   1.268       .  A
C1841      C2419   1.484       .  S
C1842      C2402   1.477       .  S
C1844      C2433   1.462       .  S
Fe1845     O1861   2.064       .  S
Fe1845     O1851   2.104       .  S
Fe1845     O1858   2.104       .  S
Fe1845     O1850   2.062       .  S
Fe1845     O1856   1.954       .  S
Fe1846     O1849   2.053       .  S
Fe1846     O1853   2.075       .  S
Fe1846     O1857   2.038       .  S
Fe1846     O1862   2.087       .  S
Fe1846     O1856   1.944       .  S
Fe1847     O1865   2.083       .  S
Fe1847     O1852   2.062       .  S
Fe1847     O1859   2.059       .  S
Fe1847     O1856   1.956       .  S
O1848      C1855   1.267       .  A
O1849      C1863   1.266       .  A
O1851      C1854   1.280       .  A
O1852      C1864   1.273       .  A
O1853      C1866   1.271       .  A
C1854      O1859   1.272       .  A
C1854      C2360   1.496       .  S
C1855      C2377   1.477       .  S
O1857      C1860   1.267       .  A
O1858      C1860   1.275       .  A
C1860      C2503   1.491       .  S
O1861      C1866   1.270       .  A
O1862      C1864   1.274       .  A
C1863      O1865   1.268       .  A
C1863      C2475   1.475       .  S
C1866      C2388   1.471       .  S
Fe1867     O1883   2.072       .  S
Fe1867     O1873   2.100       .  S
Fe1867     O1880   2.095       .  S
Fe1867     O1872   2.068       .  S
Fe1867     O1878   1.954       .  S
Fe1868     O1871   2.060       .  S
Fe1868     O1875   2.074       .  S
Fe1868     O1879   2.041       .  S
Fe1868     O1884   2.091       .  S
Fe1868     O1878   1.941       .  S
Fe1869     O1887   2.085       .  S
Fe1869     O1874   2.046       .  S
Fe1869     O1881   2.046       .  S
Fe1869     O1870   2.076       .  S
Fe1869     O1878   1.944       .  S
O1870      C1877   1.269       .  A
O1871      C1885   1.265       .  A
O1872      C1877   1.270       .  A
O1873      C1876   1.276       .  A
O1874      C1886   1.269       .  A
O1875      C1888   1.272       .  A
C1876      O1881   1.272       .  A
C1876      C2346   1.492       .  S
C1877      C2391   1.480       .  S
O1879      C1882   1.267       .  A
O1880      C1882   1.272       .  A
C1882      C2486   1.486       .  S
O1883      C1888   1.274       .  A
O1884      C1886   1.275       .  A
C1885      O1887   1.270       .  A
C1885      C2416   1.478       .  S
C1886      C2461   1.485       .  S
C1888      C2374   1.474       .  S
Fe1889     O1905   2.052       .  S
Fe1889     O1895   2.106       .  S
Fe1889     O1902   2.093       .  S
Fe1889     O1894   2.051       .  S
Fe1889     O1900   1.953       .  S
Fe1890     O1893   2.056       .  S
Fe1890     O1897   2.090       .  S
Fe1890     O1901   2.047       .  S
Fe1890     O1906   2.105       .  S
Fe1890     O1900   1.944       .  S
Fe1891     O1909   2.097       .  S
Fe1891     O1896   2.057       .  S
Fe1891     O1903   2.056       .  S
Fe1891     O1892   2.090       .  S
Fe1891     O1900   1.955       .  S
O1892      C1899   1.272       .  A
O1893      C1907   1.267       .  A
O1894      C1899   1.266       .  A
O1895      C1898   1.278       .  A
O1896      C1908   1.271       .  A
O1897      C1910   1.274       .  A
C1898      O1903   1.271       .  A
C1898      C2363   1.493       .  S
C1899      C2332   1.478       .  S
O1901      C1904   1.268       .  A
O1902      C1904   1.274       .  A
C1904      C2279   1.481       .  S
O1905      C1910   1.269       .  A
O1906      C1908   1.280       .  A
C1907      O1909   1.272       .  A
C1907      C2290   1.484       .  S
C1908      C2304   1.495       .  S
Fe1911     O1927   2.070       .  S
Fe1911     O1917   2.120       .  S
Fe1911     O1924   2.122       .  S
Fe1911     O1916   2.071       .  S
Fe1911     O1922   1.933       .  S
Fe1912     O1915   2.044       .  S
Fe1912     O1919   2.073       .  S
Fe1912     O1923   2.035       .  S
Fe1912     O1928   2.103       .  S
Fe1912     O1922   1.921       .  S
Fe1913     O1931   2.106       .  S
Fe1913     O1918   2.046       .  S
Fe1913     O1925   2.034       .  S
Fe1913     O1914   2.079       .  S
Fe1913     O1922   1.948       .  S
O1914      C1921   1.269       .  A
O1915      C1929   1.259       .  A
O1916      C1921   1.270       .  A
O1917      C1920   1.284       .  A
O1918      C1930   1.271       .  A
O1919      C1932   1.270       .  A
C1920      O1925   1.270       .  A
C1920      C2349   1.494       .  S
C1921      C2318   1.482       .  S
O1923      C1926   1.269       .  A
O1924      C1926   1.281       .  A
C1926      C2234   1.494       .  S
O1927      C1932   1.271       .  A
O1928      C1930   1.279       .  A
C1929      O1931   1.268       .  A
C1929      C2248   1.472       .  S
C1930      C2262   1.474       .  S
C1932      C2335   1.475       .  S
Fe1933     O1949   2.057       .  S
Fe1933     O1939   2.105       .  S
Fe1933     O1946   2.109       .  S
Fe1933     O1938   2.054       .  S
Fe1933     O1944   1.934       .  S
Fe1934     O1937   2.033       .  S
Fe1934     O1941   2.095       .  S
Fe1934     O1945   2.027       .  S
Fe1934     O1950   2.114       .  S
Fe1934     O1944   1.917       .  S
Fe1935     O1953   2.119       .  S
Fe1935     O1940   2.054       .  S
Fe1935     O1947   2.050       .  S
Fe1935     O1936   2.088       .  S
Fe1935     O1944   1.938       .  S
O1936      C1943   1.274       .  A
O1937      C1951   1.258       .  A
O1938      C1943   1.269       .  A
O1939      C1942   1.278       .  A
O1940      C1952   1.268       .  A
O1941      C1954   1.275       .  A
C1942      O1947   1.272       .  A
C1942      C2993   1.490       .  S
C1943      C2220   1.476       .  S
O1945      C1948   1.264       .  A
O1946      C1948   1.277       .  A
C1948      C2195   1.484       .  S
O1949      C1954   1.270       .  A
O1950      C1952   1.279       .  A
C1951      O1953   1.275       .  A
C1951      C2251   1.477       .  S
C1952      C2307   1.483       .  S
C1954      C2206   1.477       .  S
Fe1955     O1961   2.097       .  S
Fe1955     O1968   2.098       .  S
Fe1955     O1960   2.060       .  S
Fe1955     O1966   1.947       .  S
Fe1956     O1967   2.042       .  S
Fe1956     O1972   2.097       .  S
Fe1956     O1966   1.936       .  S
Fe1957     O1975   2.094       .  S
Fe1957     O1962   2.047       .  S
Fe1957     O1969   2.050       .  S
Fe1957     O1958   2.081       .  S
Fe1957     O1966   1.951       .  S
O1958      C1965   1.270       .  A
O1960      C1965   1.268       .  A
O1961      C1964   1.278       .  A
O1962      C1974   1.268       .  A
O1963      C1976   1.274       .  A
C1964      O1969   1.270       .  A
C1964      C2937   1.492       .  S
C1965      C2209   1.481       .  S
O1967      C1970   1.266       .  A
O1968      C1970   1.274       .  A
C1970      C2178   1.490       .  S
O1971      C1976   1.268       .  A
O1972      C1974   1.278       .  A
C1973      O1975   1.271       .  A
C1974      C2265   1.485       .  S
C1976      C2223   1.472       .  S
Fe1977     O1993   2.067       .  S
Fe1977     O1983   2.097       .  S
Fe1977     O1990   2.113       .  S
Fe1977     O1982   2.061       .  S
Fe1977     O1988   1.934       .  S
Fe1978     O1981   2.039       .  S
Fe1978     O1985   2.069       .  S
Fe1978     O1989   2.023       .  S
Fe1978     O1994   2.098       .  S
Fe1978     O1988   1.911       .  S
Fe1979     O1997   2.126       .  S
Fe1979     O1984   2.054       .  S
Fe1979     O1991   2.049       .  S
Fe1979     O1980   2.084       .  S
Fe1979     O1988   1.948       .  S
O1980      C1987   1.272       .  A
O1981      C1995   1.257       .  A
O1982      C1987   1.270       .  A
O1983      C1986   1.279       .  A
O1984      C1996   1.269       .  A
O1985      C1998   1.270       .  A
C1986      O1991   1.274       .  A
C1986      C2601   1.478       .  S
C1987      C2122   1.478       .  S
O1989      C1992   1.266       .  A
O1990      C1992   1.277       .  A
C1992      C2192   1.486       .  S
O1993      C1998   1.270       .  A
O1994      C1996   1.276       .  A
C1995      O1997   1.273       .  A
C1995      C2164   1.477       .  S
C1996      C2150   1.475       .  S
C1998      C2136   1.470       .  S
Fe1999     O2015   2.055       .  S
Fe1999     O2005   2.107       .  S
Fe1999     O2012   2.102       .  S
Fe1999     O2010   1.954       .  S
Fe2000     O2003   2.055       .  S
Fe2000     O2007   2.083       .  S
Fe2000     O2011   2.038       .  S
Fe2000     O2016   2.099       .  S
Fe2000     O2010   1.933       .  S
Fe2001     O2019   2.096       .  S
Fe2001     O2013   2.046       .  S
Fe2001     O2010   1.948       .  S
O2002      C2009   1.268       .  A
O2003      C2017   1.265       .  A
O2004      C2009   1.266       .  A
O2005      C2008   1.279       .  A
O2007      C2020   1.274       .  A
C2008      O2013   1.273       .  A
C2008      C2545   1.490       .  S
C2009      C2139   1.476       .  S
O2011      C2014   1.267       .  A
O2012      C2014   1.274       .  A
C2014      C2181   1.493       .  S
O2015      C2020   1.270       .  A
O2016      C2018   1.280       .  A
C2017      O2019   1.269       .  A
C2017      C2108   1.483       .  S
C2020      C2125   1.469       .  S
Fe2021     O2037   2.067       .  S
Fe2021     O2027   2.104       .  S
Fe2021     O2034   2.112       .  S
Fe2021     O2026   2.071       .  S
Fe2021     O2032   1.937       .  S
Fe2022     O2025   2.037       .  S
Fe2022     O2029   2.079       .  S
Fe2022     O2033   2.030       .  S
Fe2022     O2038   2.092       .  S
Fe2022     O2032   1.925       .  S
Fe2023     O2041   2.114       .  S
Fe2023     O2028   2.056       .  S
Fe2023     O2035   2.059       .  S
Fe2023     O2024   2.088       .  S
Fe2023     O2032   1.937       .  S
O2024      C2031   1.276       .  A
O2025      C2039   1.261       .  A
O2026      C2031   1.272       .  A
O2027      C2030   1.279       .  A
O2028      C2040   1.269       .  A
O2029      C2042   1.271       .  A
C2030      O2035   1.272       .  A
C2030      C2769   1.495       .  S
O2033      C2036   1.266       .  A
O2034      C2036   1.277       .  A
C2036      C2276   1.477       .  S
O2037      C2042   1.271       .  A
O2038      C2040   1.274       .  A
C2039      O2041   1.275       .  A
C2039      C2167   1.479       .  S
C2040      C2097   1.474       .  S
C2042      C2080   1.481       .  S
Fe2043     O2059   2.059       .  S
Fe2043     O2049   2.095       .  S
Fe2043     O2056   2.101       .  S
Fe2043     O2048   2.053       .  S
Fe2043     O2054   1.947       .  S
Fe2044     O2047   2.056       .  S
Fe2044     O2051   2.092       .  S
Fe2044     O2055   2.052       .  S
Fe2044     O2060   2.091       .  S
Fe2044     O2054   1.938       .  S
Fe2045     O2063   2.097       .  S
Fe2045     O2050   2.049       .  S
Fe2045     O2057   2.057       .  S
Fe2045     O2046   2.094       .  S
Fe2045     O2054   1.951       .  S
O2046      C2053   1.273       .  A
O2047      C2061   1.269       .  A
O2048      C2053   1.268       .  A
O2049      C2052   1.277       .  A
O2050      C2062   1.268       .  A
O2051      C2064   1.275       .  A
C2052      O2057   1.269       .  A
C2052      C2741   1.488       .  S
C2053      C2083   1.478       .  S
O2055      C2058   1.267       .  A
O2056      C2058   1.274       .  A
C2058      C2237   1.489       .  S
O2059      C2064   1.270       .  A
O2060      C2062   1.275       .  A
C2061      O2063   1.273       .  A
C2061      C2111   1.484       .  S
C2062      C2153   1.483       .  S
C2064      C2069   1.477       .  S
C2065      C2066   1.403   1_556  A
C2065      C2070   1.399       .  A
C2065      H2072   1.084       .  S
C2066      C2067   1.414   1_554  A
C2067      C2068   1.405       .  A
C2068      C2069   1.403       .  A
C2068      H2073   1.084       .  S
C2069      C2070   1.409       .  A
C2070      N2071   1.428       .  S
N2071      O2075   1.262       .  A
N2071      O2076   1.261       .  A
N2074      O2078   1.261       .  A
N2074      O2077   1.262       .  A
C2079      C2080   1.406       .  A
C2079      C2084   1.403       .  A
C2079      H2086   1.084       .  S
C2080      C2081   1.411       .  A
C2081      C2082   1.399       .  A
C2081      N2088   1.429       .  S
C2082      C2083   1.404       .  A
C2082      H2087   1.084       .  S
C2083      C2084   1.410       .  A
C2084      N2085   1.429       .  S
N2085      O2089   1.262       .  A
N2085      O2090   1.262       .  A
N2088      O2092   1.261       .  A
N2088      O2091   1.262       .  A
C2093      H2100   1.083   1_554  S
C2094      C2095   1.416       .  A
C2095      C2096   1.398       .  A
C2095      N2102   1.430       .  S
C2096      C2097   1.400       .  A
C2096      H2101   1.083       .  S
C2097      C2098   1.407       .  A
N2099      O2103   1.262   1_554  A
N2099      O2104   1.261       .  A
N2102      O2106   1.262       .  A
N2102      O2105   1.262       .  A
C2107      C2108   1.403       .  A
C2107      C2112   1.403       .  A
C2107      H2114   1.084       .  S
C2108      C2109   1.413       .  A
C2109      C2110   1.403       .  A
C2109      N2116   1.429       .  S
C2110      C2111   1.403       .  A
C2110      H2115   1.084       .  S
C2111      C2112   1.413       .  A
C2112      N2113   1.428       .  S
N2113      O2117   1.262       .  A
N2113      O2118   1.261       .  A
N2116      O2120   1.261       .  A
N2116      O2119   1.262       .  A
C2121      C2122   1.406       .  A
C2121      C2126   1.401       .  A
C2121      H2128   1.084       .  S
C2122      C2123   1.412       .  A
C2123      C2124   1.398       .  A
C2123      N2130   1.429       .  S
C2124      C2125   1.401       .  A
C2124      H2129   1.084       .  S
C2125      C2126   1.408       .  A
C2126      N2127   1.429       .  S
N2127      O2131   1.262       .  A
N2127      O2132   1.262       .  A
N2130      O2134   1.262       .  A
N2130      O2133   1.262       .  A
C2135      C2136   1.402       .  A
C2135      C2140   1.399       .  A
C2135      H2142   1.084       .  S
C2136      C2137   1.409       .  A
C2137      C2138   1.399       .  A
C2137      N2144   1.429       .  S
C2138      C2139   1.405       .  A
C2138      H2143   1.084       .  S
C2139      C2140   1.411       .  A
C2140      N2141   1.430       .  S
N2141      O2145   1.262       .  A
N2141      O2146   1.262       .  A
N2144      O2148   1.262       .  A
N2144      O2147   1.261       .  A
C2149      C2150   1.401       .  A
C2149      C2154   1.396       .  A
C2149      H2156   1.083       .  S
C2150      C2151   1.410       .  A
C2151      C2152   1.402       .  A
C2151      N2158   1.429       .  S
C2152      C2153   1.407       .  A
C2152      H2157   1.084       .  S
C2153      C2154   1.414       .  A
C2154      N2155   1.430       .  S
N2155      O2159   1.261       .  A
N2155      O2160   1.262       .  A
N2158      O2162   1.262       .  A
N2158      O2161   1.262       .  A
C2163      C2164   1.398       .  A
C2163      C2168   1.386       .  A
C2163      H2170   1.083       .  S
C2164      C2165   1.410       .  A
C2165      C2166   1.415       .  A
C2165      N2172   1.427       .  S
C2166      C2167   1.409       .  A
C2166      H2171   1.083       .  S
C2167      C2168   1.413       .  A
C2168      N2169   1.433       .  S
N2169      O2173   1.262       .  A
N2169      O2174   1.262       .  A
N2172      O2176   1.262       .  A
N2172      O2175   1.262       .  A
C2177      C2178   1.408       .  A
C2177      C2182   1.410   1_455  A
C2177      H2184   1.083       .  S
C2178      C2179   1.414       .  A
C2179      C2180   1.392   1_455  A
C2179      N2186   1.431       .  S
C2180      C2181   1.406       .  A
C2180      H2185   1.084       .  S
C2181      C2182   1.415       .  A
C2182      N2183   1.428       .  S
N2183      O2187   1.261       .  A
N2183      O2188   1.262       .  A
N2186      O2190   1.262       .  A
N2186      O2189   1.262       .  A
C2191      C2192   1.404       .  A
C2191      C2196   1.389   1_655  A
C2191      H2198   1.084       .  S
C2192      C2193   1.412       .  A
C2193      C2194   1.409   1_655  A
C2193      N2200   1.428       .  S
C2194      C2195   1.409       .  A
C2194      H2199   1.083       .  S
C2195      C2196   1.415       .  A
C2196      N2197   1.432       .  S
N2197      O2201   1.262       .  A
N2197      O2202   1.262       .  A
N2200      O2204   1.262       .  A
N2200      O2203   1.262       .  A
C2205      C2206   1.403       .  A
C2205      C2210   1.400       .  A
C2205      H2212   1.084       .  S
C2206      C2207   1.409       .  A
C2207      C2208   1.403       .  A
C2207      N2214   1.428       .  S
C2208      C2209   1.406       .  A
C2208      H2213   1.084       .  S
C2209      C2210   1.411       .  A
C2210      N2211   1.429       .  S
N2211      O2215   1.262       .  A
N2211      O2216   1.262       .  A
N2214      O2218   1.262       .  A
N2214      O2217   1.262       .  A
C2219      C2220   1.403       .  A
C2219      C2224   1.400       .  A
C2219      H2226   1.084       .  S
C2220      C2221   1.413       .  A
C2221      C2222   1.399       .  A
C2221      N2228   1.429       .  S
C2222      C2223   1.401       .  A
C2222      H2227   1.084       .  S
C2223      C2224   1.409       .  A
C2224      N2225   1.429       .  S
N2225      O2229   1.262       .  A
N2225      O2230   1.262       .  A
N2228      O2232   1.261       .  A
N2228      O2231   1.262       .  A
C2233      C2234   1.407       .  A
C2233      C2238   1.396   1_455  A
C2233      H2240   1.084       .  S
C2234      C2235   1.414       .  A
C2235      C2236   1.411   1_455  A
C2235      N2242   1.428       .  S
C2236      C2237   1.408       .  A
C2236      H2241   1.083       .  S
C2237      C2238   1.411       .  A
C2238      N2239   1.431       .  S
N2239      O2243   1.262       .  A
N2239      O2244   1.262       .  A
N2242      O2246   1.262       .  A
N2242      O2245   1.262       .  A
C2247      C2248   1.396       .  A
C2247      C2252   1.385       .  A
C2247      H2254   1.085       .  S
C2248      C2249   1.411       .  A
C2249      C2250   1.414       .  A
C2249      N2256   1.428       .  S
C2250      C2251   1.408       .  A
C2250      H2255   1.083       .  S
C2251      C2252   1.415       .  A
C2252      N2253   1.432       .  S
N2253      O2257   1.262       .  A
N2253      O2258   1.262       .  A
N2256      O2260   1.262       .  A
N2256      O2259   1.262       .  A
C2261      C2262   1.401       .  A
C2261      C2266   1.399       .  A
C2261      H2268   1.084       .  S
C2262      C2263   1.409       .  A
C2263      C2264   1.400       .  A
C2263      N2270   1.429       .  S
C2264      C2265   1.406       .  A
C2264      H2269   1.084       .  S
C2265      C2266   1.417       .  A
C2266      N2267   1.430       .  S
N2267      O2271   1.262       .  A
N2267      O2272   1.262       .  A
N2270      O2274   1.261       .  A
N2270      O2273   1.262       .  A
C2275      C2276   1.401       .  A
C2275      C2280   1.393   1_655  A
C2275      H2282   1.085       .  S
C2276      C2277   1.410       .  A
C2277      C2278   1.407   1_655  A
C2277      N2284   1.428       .  S
C2278      C2279   1.406       .  A
C2278      H2283   1.084       .  S
C2279      C2280   1.412       .  A
C2280      N2281   1.428       .  S
N2281      O2285   1.261       .  A
N2281      O2286   1.262       .  A
N2284      O2288   1.262       .  A
N2284      O2287   1.262       .  A
C2289      C2290   1.405       .  A
C2289      C2294   1.404       .  A
C2289      H2296   1.084       .  S
C2290      C2291   1.412       .  A
C2291      C2292   1.402       .  A
C2291      N2298   1.429       .  S
C2292      C2293   1.404       .  A
C2292      H2297   1.084       .  S
C2293      C2294   1.413       .  A
N2295      O2299   1.262       .  A
N2295      O2300   1.261       .  A
N2298      O2302   1.261       .  A
N2298      O2301   1.262       .  A
C2303      C2304   1.408       .  A
C2303      C2308   1.404       .  A
C2303      H2310   1.084       .  S
C2304      C2305   1.418       .  A
C2305      C2306   1.402       .  A
C2305      N2312   1.430       .  S
C2306      C2307   1.403       .  A
C2306      H2311   1.084       .  S
C2307      C2308   1.411       .  A
C2308      N2309   1.429       .  S
N2309      O2313   1.262       .  A
N2309      O2314   1.261       .  A
N2312      O2316   1.262       .  A
N2312      O2315   1.262       .  A
C2317      C2318   1.404       .  A
C2317      C2322   1.403       .  A
C2317      H2324   1.084       .  S
C2318      C2319   1.413       .  A
C2319      C2320   1.401       .  A
C2319      N2326   1.429       .  S
C2320      C2321   1.401       .  A
C2320      H2325   1.084       .  S
C2321      C2322   1.411       .  A
C2322      N2323   1.428       .  S
N2323      O2327   1.261       .  A
N2326      O2330   1.262       .  A
N2326      O2329   1.262       .  A
C2331      C2332   1.405       .  A
C2331      C2336   1.400       .  A
C2331      H2338   1.084       .  S
C2332      C2333   1.410       .  A
C2333      C2334   1.401       .  A
C2333      N2340   1.429       .  S
C2334      C2335   1.404       .  A
C2334      H2339   1.084       .  S
C2335      C2336   1.410       .  A
C2336      N2337   1.429       .  S
N2337      O2341   1.262       .  A
N2337      O2342   1.262       .  A
N2340      O2344   1.262       .  A
N2340      O2343   1.262       .  A
C2345      C2346   1.403       .  A
C2345      C2350   1.393       .  A
C2345      H2352   1.084       .  S
C2346      C2347   1.417       .  A
C2347      C2348   1.407       .  A
C2347      N2354   1.429       .  S
C2348      C2349   1.408       .  A
C2348      H2353   1.083       .  S
C2349      C2350   1.418       .  A
C2350      N2351   1.430       .  S
N2351      O2355   1.262       .  A
N2351      O2356   1.262       .  A
N2354      O2358   1.262       .  A
N2354      O2357   1.262       .  A
C2359      C2360   1.408       .  A
C2359      C2364   1.405       .  A
C2359      H2366   1.083       .  S
C2360      C2361   1.416       .  A
C2361      C2362   1.402       .  A
C2361      N2368   1.429       .  S
C2362      C2363   1.406       .  A
C2362      H2367   1.084       .  S
C2363      C2364   1.413       .  A
C2364      N2365   1.428       .  S
N2365      O2369   1.262       .  A
N2365      O2370   1.262       .  A
N2368      O2372   1.262       .  A
N2368      O2371   1.262       .  A
C2373      C2374   1.403       .  A
C2373      C2378   1.402       .  A
C2373      H2380   1.084       .  S
C2374      C2375   1.410       .  A
C2375      C2376   1.399       .  A
C2375      N2382   1.429       .  S
C2376      C2377   1.403       .  A
C2376      H2381   1.084       .  S
C2377      C2378   1.413       .  A
C2378      N2379   1.429       .  S
N2379      O2383   1.262       .  A
N2379      O2384   1.262       .  A
N2382      O2386   1.262       .  A
N2382      O2385   1.262       .  A
C2387      C2388   1.400       .  A
C2387      C2392   1.399       .  A
C2387      H2394   1.084       .  S
C2388      C2389   1.409       .  A
C2389      C2390   1.402       .  A
C2389      N2396   1.430       .  S
C2390      C2391   1.405       .  A
C2390      H2395   1.084       .  S
C2391      C2392   1.414       .  A
C2392      N2393   1.429       .  S
N2393      O2397   1.262       .  A
N2393      O2398   1.262       .  A
N2396      O2400   1.262       .  A
N2396      O2399   1.262       .  A
C2401      C2402   1.403       .  A
C2402      C2403   1.412       .  A
C2403      C2404   1.400       .  A
C2403      N2410   1.429       .  S
C2404      C2405   1.403       .  A
C2404      H2409   1.084       .  S
C2406      N2407   1.429       .  S
N2407      O2411   1.262       .  A
N2407      O2412   1.261       .  A
N2410      O2414   1.260       .  A
N2410      O2413   1.262       .  A
C2415      C2416   1.404       .  A
C2415      C2420   1.401       .  A
C2415      H2422   1.084       .  S
C2416      C2417   1.409       .  A
C2417      C2418   1.404       .  A
C2417      N2424   1.430       .  S
C2418      C2419   1.407       .  A
C2418      H2423   1.084       .  S
C2419      C2420   1.409       .  A
C2420      N2421   1.427       .  S
N2421      O2425   1.261       .  A
N2421      O2426   1.262       .  A
N2424      O2428   1.262       .  A
N2424      O2427   1.262       .  A
C2429      C2430   1.405       .  A
C2429      C2434   1.396       .  A
C2429      H2436   1.084       .  S
C2430      C2431   1.413       .  A
C2431      C2432   1.400       .  A
C2431      N2438   1.429       .  S
C2432      C2433   1.400       .  A
C2432      H2437   1.084       .  S
C2433      C2434   1.406       .  A
C2434      N2435   1.430       .  S
N2435      O2439   1.261       .  A
N2435      O2440   1.262       .  A
N2438      O2442   1.262       .  A
N2438      O2441   1.262       .  A
C2443      C2444   1.402       .  A
C2443      C2448   1.402       .  A
C2443      H2450   1.084       .  S
C2444      C2445   1.409       .  A
C2445      C2446   1.397       .  A
C2445      N2452   1.428       .  S
C2446      C2447   1.400       .  A
C2446      H2451   1.084       .  S
C2447      C2448   1.412       .  A
C2448      N2449   1.429       .  S
N2449      O2453   1.262       .  A
N2452      O2456   1.262       .  A
N2452      O2455   1.261       .  A
C2457      C2458   1.400       .  A
C2457      C2462   1.399       .  A
C2457      H2464   1.084       .  S
C2458      C2459   1.409       .  A
C2459      C2460   1.402       .  A
C2459      N2466   1.430       .  S
C2460      C2461   1.407       .  A
C2460      H2465   1.084       .  S
C2461      C2462   1.417       .  A
C2462      N2463   1.430       .  S
N2463      O2467   1.261       .  A
N2463      O2468   1.261       .  A
N2466      O2470   1.262       .  A
N2466      O2469   1.261       .  A
C2471      C2472   1.407       .  A
C2471      C2476   1.403       .  A
C2471      H2478   1.084       .  S
C2472      C2473   1.412       .  A
C2473      C2474   1.401       .  A
C2473      N2480   1.430       .  S
C2474      C2475   1.402       .  A
C2474      H2479   1.084       .  S
C2475      C2476   1.406       .  A
C2476      N2477   1.429       .  S
N2477      O2481   1.260       .  A
N2477      O2482   1.262       .  A
N2480      O2484   1.262       .  A
N2480      O2483   1.262       .  A
C2485      C2486   1.398       .  A
C2485      C2490   1.388       .  A
C2485      H2492   1.084       .  S
C2486      C2487   1.415       .  A
C2487      C2488   1.413       .  A
C2487      N2494   1.427       .  S
C2488      C2489   1.407       .  A
C2488      H2493   1.083       .  S
C2489      C2490   1.407       .  A
C2490      N2491   1.419       .  S
N2491      O2495   1.261       .  A
N2491      O2496   1.260       .  A
N2494      O2498   1.262       .  A
N2494      O2497   1.262       .  A
C2499      C2500   1.407       .  A
C2499      C2504   1.410       .  A
C2499      H2506   1.084       .  S
C2500      C2501   1.415       .  A
C2501      C2502   1.392       .  A
C2501      N2508   1.432       .  S
C2502      C2503   1.405       .  A
C2502      H2507   1.084       .  S
C2503      C2504   1.415       .  A
C2504      N2505   1.428       .  S
N2505      O2509   1.262       .  A
N2505      O2510   1.262       .  A
N2508      O2512   1.261       .  A
N2508      O2511   1.262       .  A
C2513      C2514   1.403       .  A
C2513      C2518   1.401       .  A
C2513      H2520   1.084       .  S
C2514      C2515   1.410       .  A
C2515      C2516   1.400       .  A
C2515      N2522   1.429       .  S
C2516      C2517   1.403       .  A
C2516      H2521   1.084       .  S
C2517      C2518   1.413       .  A
C2518      N2519   1.429       .  S
N2519      O2523   1.262       .  A
N2519      O2524   1.262       .  A
N2522      O2526   1.262       .  A
N2522      O2525   1.262       .  A
C2527      C2528   1.405       .  A
C2527      C2532   1.401       .  A
C2527      H2534   1.084       .  S
C2528      C2529   1.415       .  A
C2529      C2530   1.399       .  A
C2529      N2536   1.427       .  S
C2530      C2531   1.397       .  A
C2530      H2535   1.084       .  S
C2531      C2532   1.410       .  A
C2532      N2533   1.430       .  S
N2533      O2537   1.261       .  A
N2533      O2538   1.261       .  A
N2536      O2540   1.260       .  A
N2536      O2539   1.262       .  A
C2541      C2542   1.406       .  A
C2541      C2546   1.406       .  A
C2541      H2548   1.084       .  S
C2542      C2543   1.417       .  A
C2543      C2544   1.395       .  A
C2543      N2550   1.431       .  S
C2544      C2545   1.404       .  A
C2544      H2549   1.084       .  S
C2545      C2546   1.415       .  A
C2546      N2547   1.428       .  S
N2550      O2554   1.261       .  A
N2550      O2553   1.262       .  A
C2555      C2556   1.404       .  A
C2555      C2560   1.399       .  A
C2555      H2562   1.084       .  S
C2556      C2557   1.415       .  A
C2557      C2558   1.413       .  A
C2557      N2564   1.428       .  S
C2558      C2559   1.409       .  A
C2558      H2563   1.083       .  S
C2559      C2560   1.416       .  A
C2560      N2561   1.430       .  S
N2561      O2565   1.262       .  A
N2561      O2566   1.262       .  A
N2564      O2568   1.262       .  A
N2564      O2567   1.262       .  A
C2569      C2570   1.399       .  A
C2569      C2574   1.396       .  A
C2569      H2576   1.082       .  S
C2570      C2571   1.406       .  A
C2571      C2572   1.406   1_556  A
C2571      N2578   1.428   1_556  S
C2572      C2573   1.411   1_554  A
C2572      H2577   1.083       .  S
C2573      C2574   1.418       .  A
C2574      N2575   1.431       .  S
N2575      O2579   1.263       .  A
N2575      O2580   1.262       .  A
N2578      O2582   1.262       .  A
N2578      O2581   1.262       .  A
C2583      C2584   1.394       .  A
C2583      C2588   1.400       .  A
C2583      H2590   1.084       .  S
C2584      C2585   1.409       .  A
C2585      C2586   1.392       .  A
C2585      N2592   1.431       .  S
C2586      C2587   1.400       .  A
C2586      H2591   1.084       .  S
C2587      C2588   1.411       .  A
C2588      N2589   1.420       .  S
N2589      O2593   1.261       .  A
N2589      O2594   1.262       .  A
N2592      O2596   1.262       .  A
N2592      O2595   1.262       .  A
C2597      C2598   1.406       .  A
C2597      C2602   1.400       .  A
C2597      H2604   1.084       .  S
C2598      C2599   1.414       .  A
C2599      C2600   1.402       .  A
C2599      N2606   1.429       .  S
C2600      C2601   1.403       .  A
C2600      H2605   1.084       .  S
C2601      C2602   1.409       .  A
C2602      N2603   1.431       .  S
N2603      O2607   1.262       .  A
N2603      O2608   1.262       .  A
N2606      O2610   1.262       .  A
N2606      O2609   1.262       .  A
C2611      C2612   1.407       .  A
C2611      C2616   1.409       .  A
C2611      H2618   1.083       .  S
C2612      C2613   1.413       .  A
C2613      C2614   1.396       .  A
C2613      N2620   1.430       .  S
C2614      C2615   1.400       .  A
C2614      H2619   1.084       .  S
C2615      C2616   1.411       .  A
C2616      N2617   1.428       .  S
N2617      O2621   1.262       .  A
N2617      O2622   1.262       .  A
N2620      O2624   1.262       .  A
N2620      O2623   1.262       .  A
C2625      C2626   1.404       .  A
C2625      C2630   1.402       .  A
C2625      H2632   1.081       .  S
C2626      C2627   1.410       .  A
C2627      C2628   1.404       .  A
C2627      N2634   1.429       .  S
C2628      C2629   1.407       .  A
C2628      H2633   1.084       .  S
C2629      C2630   1.410       .  A
C2630      N2631   1.429       .  S
N2631      O2635   1.262       .  A
N2631      O2636   1.262       .  A
N2634      O2638   1.262       .  A
N2634      O2637   1.262       .  A
C2639      C2640   1.404       .  A
C2639      C2644   1.397       .  A
C2639      H2646   1.084       .  S
C2640      C2641   1.415       .  A
C2641      C2642   1.405       .  A
C2641      N2648   1.429       .  S
C2642      C2643   1.402       .  A
C2642      H2647   1.084       .  S
C2643      C2644   1.411       .  A
C2644      N2645   1.430       .  S
N2645      O2649   1.262       .  A
N2645      O2650   1.262       .  A
N2648      O2652   1.262       .  A
N2648      O2651   1.262       .  A
C2653      C2654   1.402       .  A
C2653      C2658   1.401       .  A
C2653      H2660   1.084       .  S
C2654      C2655   1.411       .  A
C2655      C2656   1.399       .  A
C2655      N2662   1.429       .  S
C2656      C2657   1.403       .  A
C2656      H2661   1.084       .  S
C2657      C2658   1.412       .  A
C2658      N2659   1.429       .  S
N2659      O2663   1.262       .  A
N2659      O2664   1.262       .  A
N2662      O2666   1.261       .  A
C2667      C2668   1.405       .  A
C2667      C2672   1.401       .  A
C2667      H2674   1.084       .  S
C2668      C2669   1.412       .  A
C2669      C2670   1.399       .  A
C2669      N2676   1.428       .  S
C2670      C2671   1.404       .  A
C2670      H2675   1.084       .  S
C2671      C2672   1.411       .  A
C2672      N2673   1.429       .  S
N2673      O2677   1.262       .  A
N2673      O2678   1.260       .  A
N2676      O2680   1.260       .  A
N2676      O2679   1.262       .  A
C2681      C2682   1.404       .  A
C2681      C2686   1.398       .  A
C2681      H2688   1.084       .  S
C2682      C2683   1.416       .  A
C2683      C2684   1.408       .  A
C2683      N2690   1.429       .  S
C2684      C2685   1.407       .  A
C2684      H2689   1.083       .  S
C2685      C2686   1.418       .  A
C2686      N2687   1.429       .  S
N2687      O2691   1.262       .  A
N2687      O2692   1.262       .  A
N2690      O2694   1.262       .  A
N2690      O2693   1.262       .  A
C2695      C2696   1.405       .  A
C2695      C2700   1.405       .  A
C2695      H2702   1.084       .  S
C2696      C2697   1.416       .  A
C2697      C2698   1.404       .  A
C2697      N2704   1.429       .  S
C2698      C2699   1.405       .  A
C2698      H2703   1.084       .  S
C2699      C2700   1.415       .  A
C2700      N2701   1.428       .  S
N2701      O2705   1.262       .  A
N2701      O2706   1.261       .  A
N2704      O2708   1.262       .  A
N2704      O2707   1.262       .  A
C2709      C2710   1.397       .  A
C2709      C2714   1.397       .  A
C2709      H2716   1.084       .  S
C2710      C2711   1.410       .  A
C2711      C2712   1.402       .  A
C2711      N2718   1.430       .  S
C2712      C2713   1.404       .  A
C2712      H2717   1.084       .  S
C2713      C2714   1.413       .  A
C2714      N2715   1.427       .  S
N2715      O2719   1.262       .  A
N2715      O2720   1.260       .  A
N2718      O2722   1.262       .  A
N2718      O2721   1.262       .  A
C2723      C2724   1.399       .  A
C2723      H2730   1.081       .  S
C2724      C2725   1.407       .  A
C2725      N2732   1.428       .  S
C2726      C2727   1.399       .  A
C2726      H2731   1.085       .  S
C2727      C2728   1.410   1_556  A
C2728      N2729   1.429   1_554  S
N2729      O2733   1.262       .  A
N2729      O2734   1.262       .  A
N2732      O2736   1.261       .  A
N2732      O2735   1.262       .  A
C2737      C2738   1.405       .  A
C2737      C2742   1.401       .  A
C2737      H2744   1.084       .  S
C2738      C2739   1.414       .  A
C2739      C2740   1.402       .  A
C2739      N2746   1.429       .  S
C2740      C2741   1.406       .  A
C2740      H2745   1.084       .  S
C2741      C2742   1.415       .  A
C2742      N2743   1.430       .  S
N2743      O2747   1.262       .  A
N2743      O2748   1.262       .  A
N2746      O2750   1.262       .  A
N2746      O2749   1.262       .  A
C2751      C2752   1.402       .  A
C2751      C2756   1.391   1_545  A
C2751      H2758   1.084       .  S
C2752      C2753   1.416       .  A
C2753      C2754   1.411   1_545  A
C2753      N2760   1.429       .  S
C2754      C2755   1.407       .  A
C2754      H2759   1.084       .  S
C2755      C2756   1.417       .  A
C2756      N2757   1.433       .  S
N2757      O2761   1.262       .  A
N2757      O2762   1.262       .  A
N2760      O2764   1.262       .  A
N2760      O2763   1.261       .  A
C2765      C2766   1.407       .  A
C2765      C2770   1.400       .  A
C2765      H2772   1.084       .  S
C2766      C2767   1.416       .  A
C2767      C2768   1.408       .  A
C2767      N2774   1.429       .  S
C2768      C2769   1.409       .  A
C2768      H2773   1.083       .  S
C2769      C2770   1.414       .  A
C2770      N2771   1.429       .  S
N2771      O2775   1.262       .  A
N2771      O2776   1.262       .  A
N2774      O2778   1.262       .  A
N2774      O2777   1.262       .  A
C2779      C2780   1.409       .  A
C2779      C2784   1.417   1_545  A
C2779      H2786   1.084       .  S
C2780      C2781   1.411       .  A
C2781      C2782   1.400   1_545  A
C2781      N2788   1.422       .  S
C2782      C2783   1.400       .  A
C2782      H2787   1.084       .  S
C2783      C2784   1.416       .  A
C2784      N2785   1.426       .  S
N2785      O2789   1.261       .  A
N2785      O2790   1.261       .  A
N2788      O2792   1.261       .  A
N2788      O2791   1.260       .  A
C2793      C2794   1.402       .  A
C2793      H2800   1.084       .  S
C2794      C2795   1.411       .  A
C2795      N2802   1.430       .  S
C2796      C2797   1.403       .  A
C2796      H2801   1.084       .  S
C2797      C2798   1.413       .  A
C2798      N2799   1.429       .  S
N2799      O2803   1.261       .  A
N2799      O2804   1.262       .  A
N2802      O2806   1.262       .  A
N2802      O2805   1.261       .  A
C2807      C2808   1.407       .  A
C2807      C2812   1.405       .  A
C2807      H2814   1.083       .  S
C2808      C2809   1.412       .  A
C2809      C2810   1.397       .  A
C2809      N2816   1.429       .  S
C2810      C2811   1.400       .  A
C2810      H2815   1.082       .  S
C2811      C2812   1.409       .  A
C2812      N2813   1.429       .  S
N2813      O2817   1.262       .  A
N2813      O2818   1.262       .  A
N2816      O2820   1.262       .  A
N2816      O2819   1.262       .  A
C2821      C2822   1.401       .  A
C2821      C2826   1.392       .  A
C2821      H2828   1.084       .  S
C2822      C2823   1.415       .  A
C2823      C2824   1.402       .  A
C2823      N2830   1.429       .  S
C2824      C2825   1.404       .  A
C2824      H2829   1.084       .  S
C2825      C2826   1.417       .  A
C2826      N2827   1.430       .  S
N2827      O2831   1.262       .  A
N2827      O2832   1.262       .  A
N2830      O2834   1.262       .  A
N2830      O2833   1.262       .  A
C2835      C2836   1.402       .  A
C2835      C2840   1.396       .  A
C2835      H2842   1.083       .  S
C2836      C2837   1.409       .  A
C2837      C2838   1.404       .  A
C2837      N2844   1.420       .  S
C2838      C2839   1.398       .  A
C2838      H2843   1.084       .  S
C2839      C2840   1.412       .  A
C2840      N2841   1.435       .  S
N2841      O2845   1.262       .  A
N2841      O2846   1.262       .  A
N2844      O2848   1.262       .  A
N2844      O2847   1.262       .  A
C2849      C2850   1.410       .  A
C2849      C2854   1.406       .  A
C2849      H2856   1.083       .  S
C2850      C2851   1.411       .  A
C2851      C2852   1.397       .  A
C2851      N2858   1.431       .  S
C2852      C2853   1.402       .  A
C2852      H2857   1.077       .  S
C2853      C2854   1.408       .  A
C2854      N2855   1.429       .  S
N2855      O2859   1.262       .  A
N2855      O2860   1.262       .  A
N2858      O2862   1.262       .  A
N2858      O2861   1.262       .  A
C2863      C2864   1.408       .  A
C2863      C2868   1.405       .  A
C2863      H2870   1.084       .  S
C2864      C2865   1.417       .  A
C2865      C2866   1.407       .  A
C2865      N2872   1.428       .  S
C2866      C2867   1.406       .  A
C2866      H2871   1.084       .  S
C2867      C2868   1.415       .  A
C2868      N2869   1.429       .  S
N2869      O2873   1.262       .  A
N2869      O2874   1.262       .  A
N2872      O2876   1.262       .  A
N2872      O2875   1.262       .  A
C2877      C2878   1.407       .  A
C2877      C2882   1.404       .  A
C2877      H2884   1.084       .  S
C2878      C2879   1.418       .  A
C2879      C2880   1.401       .  A
C2880      C2881   1.402       .  A
C2880      H2885   1.084       .  S
C2881      C2882   1.411       .  A
C2882      N2883   1.428       .  S
N2883      O2887   1.262       .  A
N2883      O2888   1.260       .  A
N2886      O2890   1.262       .  A
N2886      O2889   1.262       .  A
C2891      C2892   1.408       .  A
C2891      C2896   1.409       .  A
C2891      H2898   1.084       .  S
C2892      C2893   1.412       .  A
C2893      C2894   1.397       .  A
C2893      N2900   1.423       .  S
C2894      C2895   1.396       .  A
C2894      H2899   1.085       .  S
C2895      C2896   1.413       .  A
C2896      N2897   1.430       .  S
N2900      O2904   1.261       .  A
N2900      O2903   1.262       .  A
C2905      C2906   1.404       .  A
C2905      C2910   1.399       .  A
C2905      H2912   1.084       .  S
C2906      C2907   1.409       .  A
C2907      C2908   1.397       .  A
C2907      N2914   1.429       .  S
C2908      C2909   1.402       .  A
C2908      H2913   1.084       .  S
C2909      C2910   1.408       .  A
C2910      N2911   1.429       .  S
N2911      O2915   1.262       .  A
N2911      O2916   1.262       .  A
N2914      O2918   1.262       .  A
N2914      O2917   1.262       .  A
C2919      C2920   1.402       .  A
C2919      C2924   1.401       .  A
C2919      H2926   1.083       .  S
C2920      C2921   1.410       .  A
C2921      C2922   1.399       .  A
C2921      N2928   1.429       .  S
C2922      C2923   1.402       .  A
C2922      H2927   1.084       .  S
C2923      C2924   1.410       .  A
C2924      N2925   1.429       .  S
N2925      O2929   1.262       .  A
N2925      O2930   1.262       .  A
N2928      O2932   1.262       .  A
N2928      O2931   1.262       .  A
C2933      C2934   1.405       .  A
C2933      C2938   1.399       .  A
C2933      H2940   1.084       .  S
C2934      C2935   1.416       .  A
C2935      C2936   1.402       .  A
C2935      N2942   1.429       .  S
C2936      C2937   1.406       .  A
C2936      H2941   1.083       .  S
C2937      C2938   1.416       .  A
C2938      N2939   1.429       .  S
N2939      O2943   1.262       .  A
N2939      O2944   1.262       .  A
N2942      O2945   1.262       .  A
C2947      C2948   1.400       .  A
C2947      C2952   1.396   1_565  A
C2947      H2954   1.084       .  S
C2948      C2949   1.413       .  A
C2949      C2950   1.410   1_565  A
C2949      N2956   1.428       .  S
C2950      C2951   1.408       .  A
C2950      H2955   1.083       .  S
C2951      C2952   1.417       .  A
N2953      O2958   1.262       .  A
N2956      O2959   1.262       .  A
C2961      C2962   1.404       .  A
C2961      C2966   1.401       .  A
C2961      H2968   1.084       .  S
C2962      C2963   1.415       .  A
C2963      C2964   1.402       .  A
C2963      N2970   1.431       .  S
C2964      C2965   1.404       .  A
C2964      H2969   1.084       .  S
C2965      C2966   1.414       .  A
C2966      N2967   1.429       .  S
N2967      O2971   1.262       .  A
N2967      O2972   1.260       .  A
C2975      C2976   1.402       .  A
C2975      C2980   1.401       .  A
C2975      H2982   1.084       .  S
C2976      C2977   1.414       .  A
C2977      C2978   1.403       .  A
C2978      C2979   1.404       .  A
C2978      H2983   1.084       .  S
C2979      C2980   1.414       .  A
C2980      N2981   1.429       .  S
N2981      O2985   1.262       .  A
N2981      O2986   1.261       .  A
N2984      O2988   1.261       .  A
N2984      O2987   1.262       .  A
C2989      C2990   1.406       .  A
C2989      C2994   1.403       .  A
C2989      H2996   1.084       .  S
C2990      C2991   1.414       .  A
C2991      C2992   1.398       .  A
C2991      N2998   1.429       .  S
C2992      C2993   1.406       .  A
C2992      H2997   1.084       .  S
C2993      C2994   1.415       .  A
C2994      N2995   1.429       .  S
N2995      O2999   1.262       .  A
N2995      O3000   1.262       .  A
N2998      O3002   1.262       .  A
N2998      O3001   1.262       .  A
C3003      C3004   1.410       .  A
C3003      C3008   1.410   1_565  A
C3003      H3010   1.083       .  S
C3004      C3005   1.413       .  A
C3005      C3006   1.391   1_565  A
C3005      N3012   1.431       .  S
C3006      C3007   1.405       .  A
C3006      H3011   1.084       .  S
C3007      C3008   1.413       .  A
C3008      N3009   1.428       .  S
N3009      O3013   1.262       .  A
N3009      O3014   1.262       .  A
N3012      O3016   1.261       .  A
N3012      O3015   1.262       .  A
C3017      C3018   1.402       .  A
C3017      C3022   1.398       .  A
C3017      H3024   1.085       .  S
C3018      C3019   1.408       .  A
C3019      C3020   1.398       .  A
C3019      N3026   1.429       .  S
C3020      C3021   1.406       .  A
C3020      H3025   1.084       .  S
C3021      C3022   1.416       .  A
C3022      N3023   1.430       .  S
N3023      O3027   1.262       .  A
N3023      O3028   1.262       .  A
N3026      O3030   1.261       .  A
N3026      O3029   1.262       .  A
C3031      C3032   1.403       .  A
C3031      C3036   1.398       .  A
C3031      H3038   1.084       .  S
C3032      C3033   1.410       .  A
C3033      C3034   1.400       .  A
C3033      N3040   1.429       .  S
C3034      C3035   1.402       .  A
C3034      H3039   1.084       .  S
C3035      C3036   1.410       .  A
C3036      N3037   1.429       .  S
N3037      O3041   1.262       .  A
N3037      O3042   1.261       .  A
N3040      O3044   1.262       .  A
N3040      O3043   1.262       .  A
C3045      C3046   1.402       .  A
C3045      C3050   1.399       .  A
C3045      H3052   1.084       .  S
C3046      C3047   1.410       .  A
C3047      C3048   1.399       .  A
C3047      N3054   1.430       .  S
C3048      C3049   1.403       .  A
C3048      H3053   1.084       .  S
C3049      C3050   1.410       .  A
C3050      N3051   1.430       .  S
N3051      O3055   1.262       .  A
N3051      O3056   1.262       .  A
N3054      O3058   1.262       .  A
N3054      O3057   1.262       .  A
C3059      C3060   1.403       .  A
C3059      C3064   1.403       .  A
C3059      H3066   1.084       .  S
C3060      C3061   1.407       .  A
C3061      C3062   1.405       .  A
C3061      N3068   1.429       .  S
C3062      C3063   1.409       .  A
C3062      H3067   1.084       .  S
C3063      C3064   1.414       .  A
C3064      N3065   1.431       .  S
N3065      O3069   1.262       .  A
N3065      O3070   1.262       .  A
N3068      O3072   1.262       .  A
N3068      O3071   1.261       .  A
