geometry optimzed in LAMMPS
_audit_creation_date              2020-12-01 
_audit_creation_method            'lammps2cif' 
_symmetry_space_group_name_H-M    'P1' 
_symmetry_Int_Tables_number       1 
_symmetry_cell_setting            triclinic 
loop_ 
_symmetry_equiv_pos_as_xyz 
  x,y,z 
_cell_length_a                    51.19073323 
_cell_length_b                    51.320222320251524 
_cell_length_c                    104.56515977466178 
_cell_angle_alpha                 90.02609607544315 
_cell_angle_beta                  89.92146982000683 
_cell_angle_gamma                 120.5329582540085 
loop_ 
_atom_site_label 
_atom_site_type_symbol 
_atom_site_fract_x 
_atom_site_fract_y 
_atom_site_fract_z 
_atom_site_charge 
O1          O  0.92114263  0.31984045  0.49839623    -0.81200
O2          O  0.78679443  0.27275209  0.50151284    -0.65900
O3          O  0.86219912  0.27611280  0.50560229    -1.12500
C4          C  0.84645873  0.23906891  0.46369224     1.05700
O5          O  0.76468029  0.22794915  0.49191993    -0.79100
O6          O  0.80017800  0.20339154  0.49221498    -0.66700
Ni7        Ni  0.89550263  0.31064685  0.51321900     1.34900
C8          C  0.82420626  0.20276457  0.49437902     0.84400
O9          O  0.82470267  0.28754065  0.52139009    -0.79600
O10         O  0.87213954  0.30391037  0.52851110    -0.89900
C11         C  0.76332946  0.24955498  0.49723870     0.84000
O12         O  0.88702065  0.34154546  0.50822573    -0.68100
O13         O  0.81890584  0.22370213  0.46743617    -0.87400
C14         C  0.86527395  0.34095055  0.50214902     0.84800
C15         C  0.84500517  0.29827625  0.53012013     1.06400
H16         H  0.82895537  0.28032399  0.48094398     0.38200
O17         O  0.82684297  0.26449714  0.48660797    -1.10100
O18         O  0.85068331  0.22525676  0.49211134    -0.66700
Ni19       Ni  0.86559258  0.26779175  0.48809566     1.26300
O20         O  0.84213601  0.31649224  0.49858231    -0.66900
O21         O  0.86738081  0.25974066  0.47044669    -0.79200
C22         C  0.92705206  0.30160406  0.49262186     0.84200
O23         O  0.90595460  0.27488797  0.49004244    -0.66400
Ni24       Ni  0.79396809  0.22765502  0.48035644     1.27400
Ni25       Ni  0.82487925  0.27532920  0.50395092     1.26100
H26         H  0.85845776  0.25887492  0.51071781     0.38700
O27         O  0.96923525  0.25554151  0.32412853    -0.81200
O28         O  0.91883267  0.11785654  0.31303015    -0.65900
O29         O  0.93037628  0.19776022  0.31310030    -1.12500
C30         C  0.88624109  0.16937168  0.35462846     1.05700
O31         O  0.87251966  0.09824088  0.32072675    -0.79100
O32         O  0.84827106  0.13125710  0.32798227    -0.66700
Ni33       Ni  0.96984955  0.23176900  0.30988351     1.34900
C34         C  0.85015583  0.15530427  0.32378485     0.84400
O35         O  0.93988580  0.16235464  0.29533043    -0.79600
O36         O  0.97445295  0.21207969  0.29516045    -0.89900
C37         C  0.89352963  0.09491818  0.31603280     0.84000
O38         O  0.99316306  0.21982529  0.31996175    -0.68100
O39         O  0.87614547  0.14193871  0.35127467    -0.87400
C40         C  0.99021160  0.19386990  0.32121838     0.84800
C41         C  0.96188580  0.18579974  0.29010484     1.06400
H42         H  0.92826143  0.15809970  0.33565682     0.38200
O43         O  0.91256948  0.15649638  0.33002789    -1.10100
O44         O  0.87470533  0.18089815  0.32368246    -0.66700
Ni45       Ni  0.91541962  0.19510973  0.33003736     1.26300
O46         O  0.96575212  0.16965333  0.31848986    -0.66900
O47         O  0.90145996  0.19184459  0.34723247    -0.79200
C48         C  0.94739375  0.25778480  0.32868675     0.84200
O49         O  0.92090966  0.23488854  0.32946141    -0.66400
Ni50       Ni  0.87595896  0.12175694  0.33567499     1.27400
Ni51       Ni  0.92566808  0.15827028  0.31268408     1.26100
H52         H  0.91645637  0.19835437  0.30702841     0.38700
O53         O  0.81470972  0.76204473  0.32404906    -0.81200
O54         O  0.95271185  0.84972816  0.31293772    -0.65900
O55         O  0.87244872  0.78124751  0.31343391    -1.12500
C56         C  0.89811471  0.77431083  0.35674531     1.05700
O57         O  0.97056444  0.82433523  0.32298835    -0.79100
O58         O  0.93792502  0.76959228  0.33423572    -0.66700
Ni59       Ni  0.83901775  0.78655209  0.30977894     1.34900
C60         C  0.91668736  0.74754926  0.32820564     0.84400
O61         O  0.90878883  0.82357341  0.29494018    -0.79600
O62         O  0.85968634  0.81069572  0.29499429    -0.89900
C63         C  0.97498908  0.84806586  0.31725812     0.84000
O64         O  0.85131688  0.82251083  0.31960936    -0.68100
O65         O  0.92515202  0.79521188  0.35417441    -0.87400
C66         C  0.87732597  0.84631036  0.31973454     0.84800
C67         C  0.88590691  0.82313388  0.28974891     1.06400
H68         H  0.90896281  0.82193692  0.33542980     0.38200
O69         O  0.91225578  0.80774929  0.33064722    -1.10100
O70         O  0.89205200  0.74648734  0.32502224    -0.66700
Ni71       Ni  0.87465918  0.77064159  0.33068337     1.26300
O72         O  0.90122744  0.84599925  0.31682238    -0.66900
O73         O  0.87741480  0.76146425  0.34828575    -0.79200
C74         C  0.81211280  0.73768883  0.32848540     0.84200
O75         O  0.83527847  0.73493944  0.32990045    -0.66400
Ni76       Ni  0.94667950  0.80947276  0.33832095     1.27400
Ni77       Ni  0.91205321  0.81616576  0.31277108     1.26100
H78         H  0.87162090  0.76606337  0.30769988     0.38700
O79         O  0.77132953  0.65937060  0.50121976    -0.81200
O80         O  0.81023305  0.56472663  0.50005374    -0.65900
O81         O  0.81088660  0.63808535  0.50656668    -1.12500
C82         C  0.85185496  0.66796535  0.46577484     1.05700
O83         O  0.85274404  0.58530669  0.48850961    -0.79100
O84         O  0.88064201  0.64523615  0.49360661    -0.66700
Ni85       Ni  0.77736366  0.63752605  0.51475029     1.34900
C86         C  0.88376683  0.67068078  0.49646373     0.84400
O87         O  0.79649375  0.58572361  0.52079410    -0.79600
O88         O  0.78113432  0.61634002  0.52902641    -0.89900
C89         C  0.83190803  0.56336512  0.49482145     0.84000
O90         O  0.74499889  0.59991797  0.50817779    -0.68100
O91         O  0.86645861  0.65518371  0.46931302    -0.87400
C92         C  0.74422946  0.57846333  0.50176311     0.84800
C93         C  0.78562614  0.59413267  0.52987108     1.06400
H94         H  0.80475538  0.60379838  0.48055385     0.38200
O95         O  0.82089117  0.61620949  0.48644684    -1.10100
O96         O  0.86350657  0.67754534  0.49396811    -0.66700
Ni97       Ni  0.82045349  0.65278315  0.48942244     1.26300
O98         O  0.76801279  0.57862818  0.49818067    -0.66900
O99         O  0.82954104  0.66562508  0.47208058    -0.79200
C100        C  0.79182783  0.68448500  0.49662012     0.84200
O101        O  0.81689937  0.68765499  0.49283777    -0.66400
Ni102      Ni  0.85747699  0.62044461  0.47975118     1.27400
Ni103      Ni  0.80946039  0.60080035  0.50358659     1.26100
H104        H  0.82830735  0.65025724  0.51192026     0.38700
O105        O  0.31053035  0.10333367  0.32585639    -0.81200
O106        O  0.21440456  0.13834924  0.31841472    -0.65900
O107        O  0.29049227  0.14128310  0.31666056    -1.12500
C108        C  0.30173843  0.17753197  0.35909415     1.05700
O109        O  0.23683499  0.18446027  0.32644774    -0.79100
O110        O  0.29602935  0.21438473  0.33139257    -0.66700
Ni111      Ni  0.29264518  0.10761468  0.31044974     1.34900
C112        C  0.32109810  0.21629997  0.32875084     0.84400
O113        O  0.24235022  0.12559001  0.29938769    -0.79600
O114        O  0.27482336  0.10943715  0.29469290    -0.89900
C115        C  0.21334757  0.16143812  0.32202815     0.84000
O116        O  0.25419078  0.07500765  0.31593011    -0.68100
O117        O  0.28541571  0.18837914  0.35533101    -0.87400
C118        C  0.23069523  0.07389202  0.32051540     0.84800
C119        C  0.25337744  0.11413956  0.29169008     1.06400
H120        H  0.24907219  0.13404732  0.34000748     0.38200
O121        O  0.26260947  0.15061755  0.33451931    -1.10100
O122        O  0.32572619  0.19423246  0.32991840    -0.66700
Ni123      Ni  0.30047514  0.15167622  0.33425621     1.26300
O124        O  0.22888300  0.09734007  0.32242724    -0.66900
O125        O  0.30830772  0.16142632  0.35200624    -0.79200
C126        C  0.33479782  0.12436884  0.33076555     0.84200
O127        O  0.33699537  0.14961273  0.33331811    -0.66400
Ni128      Ni  0.26144328  0.18500281  0.34047783     1.27400
Ni129      Ni  0.25198709  0.13870260  0.31703197     1.26100
H130        H  0.30391756  0.15846723  0.31141550     0.38700
O131        O  0.42763229  0.16171689  0.50288013    -0.81200
O132        O  0.52070213  0.29664999  0.50220332    -0.65900
O133        O  0.44798525  0.22228229  0.50917114    -1.12500
C134        C  0.41941963  0.23195965  0.46732399     1.05700
O135        O  0.49752237  0.31750392  0.49217114    -0.79100
O136        O  0.43691273  0.28425377  0.49347617    -0.66700
Ni137      Ni  0.44929930  0.18924295  0.51669866     1.34900
C138        C  0.41328631  0.26174076  0.49805923     0.84400
O139        O  0.50091965  0.26104820  0.52305105    -0.79600
O140        O  0.47090781  0.21409583  0.53105040    -0.89900
C141        C  0.52074648  0.31959304  0.49762184     0.84000
O142        O  0.48670244  0.19573150  0.50968108    -0.68100
O143        O  0.43505217  0.26031411  0.46957381    -0.87400
C144        C  0.50771002  0.21698217  0.50319896     0.84800
C145        C  0.49309470  0.24121989  0.53193659     1.06400
H146        H  0.48068372  0.25016628  0.48317423     0.38200
O147        O  0.46869693  0.25436705  0.48904278    -1.10100
O148        O  0.40771089  0.23452350  0.49727438    -0.66700
Ni149      Ni  0.43212726  0.21682589  0.49227078     1.26300
O150        O  0.50742420  0.24072906  0.50012889    -0.66900
O151        O  0.41784529  0.21215543  0.47509430    -0.79200
C152        C  0.40220867  0.15628478  0.49846606     0.84200
O153        O  0.39764472  0.17790855  0.49605811    -0.66400
Ni154      Ni  0.46599543  0.28675813  0.48160238     1.27400
Ni155      Ni  0.48500682  0.25892949  0.50600391     1.26100
H156        H  0.43596707  0.22697343  0.51480621     0.38700
O157        O  0.15793138  0.42585668  0.97950469    -0.81200
O158        O  0.29644103  0.51321936  0.97925833    -0.65900
O159        O  0.21815226  0.44365791  0.97353962    -1.12500
C160        C  0.22643335  0.42342257  0.01737605     1.05700
O161        O  0.31202386  0.48577919  0.98934544    -0.79100
O162        O  0.27569540  0.42734200  0.99465237    -0.66700
Ni163      Ni  0.18638243  0.44708625  0.96593952     1.34900
C164        C  0.25409153  0.40568447  0.98862528     0.84400
O165        O  0.26089380  0.49183174  0.95828894    -0.79600
O166        O  0.21205553  0.46856477  0.95176493    -0.89900
C167        C  0.31764730  0.51038934  0.98406818     0.84000
O168        O  0.19440702  0.48446284  0.97332042    -0.68100
O169        O  0.25487898  0.44180174  0.01618652    -0.87400
C170        C  0.21812390  0.50669027  0.97800814     0.84800
C171        C  0.24041453  0.48624728  0.94994430     1.06400
H172        H  0.24653124  0.47907892  0.99839184     0.38200
O173        O  0.25053407  0.46564580  0.99339236    -1.10100
O174        O  0.22867589  0.40385484  0.98648210    -0.66700
Ni175      Ni  0.21224969  0.42954455  0.99080224     1.26300
O176        O  0.24241535  0.50627298  0.97988723    -0.66900
O177        O  0.20756953  0.41666165  0.00825543    -0.79200
C178        C  0.15145684  0.40093641  0.98477474     0.84200
O179        O  0.17238586  0.39551469  0.98760252    -0.66400
Ni180      Ni  0.28189532  0.46366334  0.00227169     1.27400
Ni181      Ni  0.25685721  0.47920370  0.97595120     1.26100
H182        H  0.22114168  0.43002686  0.96819840     0.38700
O183        O  0.08682415  0.31340686  0.16038376    -0.81200
O184        O  0.14115833  0.22828420  0.16620121    -0.65900
O185        O  0.12607277  0.29382597  0.16909222    -1.12500
C186        C  0.16287917  0.31340761  0.12610772     1.05700
O187        O  0.18514849  0.25707123  0.15656379    -0.79100
O188        O  0.20586438  0.31391413  0.14807798    -0.66700
Ni189      Ni  0.08630195  0.28557007  0.17299245     1.34900
C190        C  0.20553174  0.33359399  0.15532484     0.84400
O191        O  0.12083239  0.24862821  0.18547837    -0.79600
O192        O  0.08216349  0.25768240  0.18622821    -0.89900
C193        C  0.16661064  0.23267711  0.16228904     0.84000
O194        O  0.06466597  0.25277749  0.16130478    -0.68100
O195        O  0.16862540  0.29209832  0.12742204    -0.87400
C196        C  0.06741696  0.22967527  0.16010938     0.84800
C197        C  0.09704132  0.24596311  0.19076606     1.06400
H198        H  0.12459267  0.25951658  0.14530098     0.38200
O199        O  0.14177996  0.27300819  0.15051224    -1.10100
O200        O  0.18123815  0.33284864  0.15881514    -0.66700
Ni201      Ni  0.14010208  0.30907660  0.15234459     1.26300
O202        O  0.09171653  0.23010614  0.16302030    -0.66900
O203        O  0.15392015  0.32339540  0.13527607    -0.79200
C204        C  0.10832707  0.33883707  0.15641079     0.84200
O205        O  0.13499797  0.34334002  0.15489484    -0.66400
Ni206      Ni  0.17569230  0.27474770  0.14232199     1.27400
Ni207      Ni  0.13226608  0.26023302  0.16795478     1.26100
H208        H  0.13981186  0.30787328  0.17539155     0.38700
O209        O  0.65679615  0.76642709  0.98278807    -0.81200
O210        O  0.56327967  0.81136875  0.97459940    -0.65900
O211        O  0.63379207  0.80324082  0.97407603    -1.12500
C212        C  0.64514105  0.84326165  0.01644299     1.05700
O213        O  0.59118540  0.85782546  0.98171373    -0.79100
O214        O  0.64777962  0.88323417  0.99082055    -0.66700
Ni215      Ni  0.62896814  0.76458606  0.96990765     1.34900
C216        C  0.67073743  0.88258469  0.98670859     0.84400
O217        O  0.58740596  0.79278929  0.95644024    -0.79600
O218        O  0.60165707  0.75818884  0.95611778    -0.89900
C219        C  0.56607683  0.83665364  0.97751818     0.84000
O220        O  0.59506292  0.74047809  0.98089871    -0.68100
O221        O  0.62689178  0.85212269  0.01311085    -0.87400
C222        C  0.57115791  0.74200182  0.98219045     0.84800
C223        C  0.58728485  0.77010689  0.95135880     1.06400
H224        H  0.59449218  0.80233403  0.99674107     0.38200
O225        O  0.60873377  0.81850078  0.99126040    -1.10100
O226        O  0.67180483  0.85832960  0.98579875    -0.66700
Ni227      Ni  0.64500010  0.81688476  0.99144200     1.26300
O228        O  0.57020570  0.76561703  0.97943252    -0.66900
O229        O  0.65420054  0.82986371  0.00889744    -0.79200
C230        C  0.67930973  0.78816941  0.98844968     0.84200
O231        O  0.68010042  0.81266653  0.99120765    -0.66400
Ni232      Ni  0.60911326  0.85376206  0.99716716     1.27400
Ni233      Ni  0.59786083  0.80624642  0.97386555     1.26100
H234        H  0.64848009  0.81809780  0.96825460     0.38700
O235        O  0.75513080  0.81443704  0.15852001    -0.81200
O236        O  0.84371620  0.95483676  0.16510241    -0.65900
O237        O  0.77652220  0.87383795  0.16750319    -1.12500
C238        C  0.76024587  0.89312452  0.12430730     1.05700
O239        O  0.81449643  0.96931989  0.15586726    -0.79100
O240        O  0.75870994  0.93457095  0.14602969    -0.66700
Ni241      Ni  0.78355404  0.84163526  0.17124852     1.34900
C242        C  0.73867890  0.91470836  0.15330990     0.84400
O243        O  0.82174877  0.91312640  0.18426610    -0.79600
O244        O  0.81188746  0.86505632  0.18465008    -0.89900
C245        C  0.83958843  0.97576712  0.16094855     0.84000
O246        O  0.81612362  0.85298041  0.15943808    -0.68100
O247        O  0.78195458  0.92029193  0.12583325    -0.87400
C248        C  0.84005595  0.87874528  0.15867068     0.84800
C249        C  0.82385751  0.89165183  0.18943935     1.06400
H250        H  0.81247451  0.90744882  0.14395476     0.38200
O251        O  0.79903563  0.91114213  0.14911938    -1.10100
O252        O  0.73913975  0.89125736  0.15704748    -0.66700
Ni253      Ni  0.76235008  0.87355060  0.15063225     1.26300
O254        O  0.84061073  0.90290776  0.16187000    -0.66900
O255        O  0.74930980  0.87382052  0.13339100    -0.79200
C256        C  0.73065546  0.81174406  0.15408877     0.84200
O257        O  0.72723053  0.83443642  0.15282726    -0.66400
Ni258      Ni  0.79830476  0.94384660  0.14106935     1.27400
Ni259      Ni  0.81099059  0.91373312  0.16666993     1.26100
H260        H  0.76235671  0.87346628  0.17372667     0.38700
O261        O  0.31711770  0.92034035  0.99179312    -0.81200
O262        O  0.26874498  0.78488060  0.98228742    -0.65900
O263        O  0.27651398  0.86269078  0.98162139    -1.12500
C264        C  0.23237933  0.84151370  0.02209926     1.05700
O265        O  0.23005918  0.76172733  0.99595227    -0.79100
O266        O  0.20345998  0.79560893  0.99249050    -0.66700
Ni267      Ni  0.31399796  0.89735741  0.97666158     1.34900
C268        C  0.20129513  0.81890384  0.99069396     0.84400
O269        O  0.28590287  0.82706424  0.96408250    -0.79600
O270        O  0.31391066  0.87753032  0.96119078    -0.89900
C271        C  0.24860149  0.76129597  0.98796239     0.84000
O272        O  0.34238962  0.88753337  0.98379937    -0.68100
O273        O  0.21693907  0.81488289  0.01754090    -0.87400
C274        C  0.33983524  0.86232914  0.98671248     0.84800
C275        C  0.30367320  0.85040339  0.95737691     1.06400
H276        H  0.27915954  0.82613697  0.00507336     0.38200
O277        O  0.26301296  0.82413504  0.99962438    -1.10100
O278        O  0.22230420  0.84555747  0.99391313    -0.66700
Ni279      Ni  0.26502465  0.86240411  0.99886328     1.26300
O280        O  0.31453934  0.83774394  0.98681386    -0.66900
O281        O  0.25541587  0.86215444  0.01639433    -0.79200
C282        C  0.29607485  0.92415111  0.99611719     0.84200
O283        O  0.26950801  0.90168553  0.99748759    -0.66400
Ni284      Ni  0.22577940  0.79092684  0.00584376     1.27400
Ni285      Ni  0.27360486  0.82428632  0.98180069     1.26100
H286        H  0.26090487  0.86148944  0.97603933     0.38700
O287        O  0.25392115  0.98835837  0.16406272    -0.81200
O288        O  0.12008907  0.93992187  0.16728832    -0.65900
O289        O  0.19590245  0.94436779  0.17184127    -1.12500
C290        C  0.18118411  0.90743449  0.12969520     1.05700
O291        O  0.09905875  0.89455363  0.15827199    -0.79100
O292        O  0.13395314  0.86941390  0.15693997    -0.66700
Ni293      Ni  0.22900784  0.97967107  0.17903460     1.34900
C294        C  0.15795441  0.86953024  0.16000430     0.84400
O295        O  0.15820286  0.95600331  0.18749515    -0.79600
O296        O  0.20600761  0.97270086  0.19432903    -0.89900
C297        C  0.09696438  0.91620216  0.16310872     0.84000
O298        O  0.21964977  0.01014569  0.17408056    -0.68100
O299        O  0.15311894  0.89323445  0.13279734    -0.87400
C300        C  0.19781321  0.00882446  0.16778319     0.84800
C301        C  0.17876326  0.96643581  0.19617419     1.06400
H302        H  0.16339263  0.94771607  0.14702672     0.38200
O303        O  0.16087720  0.93182474  0.15275517    -1.10100
O304        O  0.18453539  0.89277360  0.15880621    -0.66700
Ni305      Ni  0.19963854  0.93527584  0.15449648     1.26300
O306        O  0.17527059  0.98395158  0.16420634    -0.66900
O307        O  0.20198872  0.92667018  0.13696209    -0.79200
C308        C  0.26093743  0.96992822  0.15928488     0.84200
O309        O  0.24023094  0.94290718  0.15680592    -0.66400
Ni310      Ni  0.12801168  0.89555058  0.14610377     1.27400
Ni311      Ni  0.15845446  0.94316564  0.17000560     1.26100
H312        H  0.19241661  0.92750293  0.17715955     0.38700
O313        O  0.42328908  0.91326134  0.32992742    -0.81200
O314        O  0.56152375  0.01466568  0.33065499    -0.65900
O315        O  0.48545718  0.94256621  0.32463415    -1.12500
C316        C  0.50144972  0.91875262  0.36708289     1.05700
O317        O  0.57965902  0.98672870  0.33810027    -0.79100
O318        O  0.54736438  0.92687708  0.34479061    -0.66700
Ni319      Ni  0.45142240  0.94395578  0.31834419     1.34900
C320        C  0.52652441  0.90581353  0.33814905     0.84400
O321        O  0.52516351  0.99296138  0.31024342    -0.79600
O322        O  0.47589102  0.97411735  0.30573769    -0.89900
C323        C  0.58390271  0.01185783  0.33388892     0.84000
O324        O  0.45458594  0.97369805  0.32999910    -0.68100
O325        O  0.52813323  0.94173257  0.36622754    -0.87400
C326        C  0.47742568  0.99806098  0.33380524     0.84800
C327        C  0.50403483  0.99031795  0.30295542     1.06400
H328        H  0.51320627  0.97535072  0.35010422     0.38200
O329        O  0.51854874  0.96394495  0.34441238    -1.10100
O330        O  0.50271779  0.90586917  0.33487670    -0.66700
Ni331      Ni  0.48269196  0.92604610  0.34131053     1.26300
O332        O  0.50466615  0.00364301  0.33265268    -0.66900
O333        O  0.48174144  0.90991852  0.35812800    -0.79200
C334        C  0.42232052  0.88907761  0.33345352     0.84200
O335        O  0.44597246  0.88943257  0.33733967    -0.66400
Ni336      Ni  0.55249491  0.96388828  0.35184111     1.27400
Ni337      Ni  0.52262530  0.97951763  0.32743301     1.26100
H338        H  0.48946710  0.93101972  0.31845962     0.38700
O339        O  0.55992142  0.16294920  0.16284751    -0.81200
O340        O  0.59741806  0.06540942  0.16645083    -0.65900
O341        O  0.59561145  0.13863336  0.17037334    -1.12500
C342        C  0.63954273  0.15851679  0.12886622     1.05700
O343        O  0.64551120  0.09360677  0.16116507    -0.79100
O344        O  0.67474529  0.15280183  0.15445927    -0.66700
Ni345      Ni  0.56101756  0.13893219  0.17677493     1.34900
C346        C  0.67418576  0.17561927  0.15877996     0.84400
O347        O  0.58158395  0.08869944  0.18588158    -0.79600
O348        O  0.55974496  0.11560745  0.19144888    -0.89900
C349        C  0.62328650  0.06824895  0.16465311     0.84000
O350        O  0.53113595  0.10394886  0.16805521    -0.68100
O351        O  0.64658522  0.13852708  0.13151507    -0.87400
C352        C  0.53066881  0.08136989  0.16289612     0.84800
C353        C  0.56850400  0.09687146  0.19398256     1.06400
H354        H  0.59325027  0.10300202  0.14580783     0.38200
O355        O  0.60893681  0.11553146  0.15184755    -1.10100
O356        O  0.65001641  0.17672215  0.15957568    -0.66700
Ni357      Ni  0.60931467  0.15274409  0.15336857     1.26300
O358        O  0.55349705  0.07772142  0.16254541    -0.66900
O359        O  0.62447505  0.16589675  0.13630739    -0.79200
C360        C  0.58225419  0.18738245  0.15864295     0.84200
O361        O  0.60686501  0.18857464  0.15557047    -0.66400
Ni362      Ni  0.64477917  0.11614938  0.14652375     1.27400
Ni363      Ni  0.59487843  0.10120073  0.16872615     1.26100
H364        H  0.61182156  0.15094484  0.17625011     0.38700
O365        O  0.14574852  0.54681554  0.33003545    -0.81200
O366        O  0.05599095  0.59231049  0.32553736    -0.65900
O367        O  0.12836235  0.58812539  0.32265039    -1.12500
C368        C  0.15324711  0.63435979  0.36246744     1.05700
O369        O  0.08282129  0.64001562  0.33199248    -0.79100
O370        O  0.14365964  0.66385770  0.33269369    -0.66700
Ni371      Ni  0.12843558  0.55452227  0.31523391     1.34900
C372        C  0.16772788  0.66269307  0.33158100     0.84400
O373        O  0.07995361  0.57607163  0.30639149    -0.79600
O374        O  0.11169691  0.56040069  0.29990505    -0.89900
C375        C  0.05851903  0.61798295  0.32747152     0.84000
O376        O  0.08955429  0.52386704  0.32095228    -0.68100
O377        O  0.14002431  0.64764444  0.35778911    -0.87400
C378        C  0.06813243  0.52345557  0.32724000     0.84800
C379        C  0.09174395  0.56773730  0.29771300     1.06400
H380        H  0.09088970  0.58823913  0.34688317     0.38200
O381        O  0.10506011  0.60252869  0.34074287    -1.10100
O382        O  0.16902174  0.63949859  0.33482182    -0.66700
Ni383      Ni  0.14040952  0.59860322  0.34002892     1.26300
O384        O  0.06701133  0.54723088  0.32974123    -0.66900
O385        O  0.15153231  0.61085949  0.35744309    -0.79200
C386        C  0.17050050  0.56643423  0.33515689     0.84200
O387        O  0.17406382  0.59179754  0.33864424    -0.66400
Ni388      Ni  0.11139232  0.64170105  0.34455849     1.27400
Ni389      Ni  0.09148566  0.58872791  0.32375219     1.26100
H390        H  0.14183900  0.60511590  0.31734119     0.38700
O391        O  0.91992213  0.43887338  0.15959220    -0.81200
O392        O  0.00875611  0.57804259  0.16245999    -0.65900
O393        O  0.94007953  0.49847147  0.16655596    -1.12500
C394        C  0.91892651  0.51617272  0.12406504     1.05700
O395        O  0.97642624  0.59156683  0.15583485    -0.79100
O396        O  0.91851818  0.55609732  0.14696473    -0.66700
Ni397      Ni  0.94219157  0.46557615  0.17348313     1.34900
C398        C  0.89747135  0.53302633  0.15262332     0.84400
O399        O  0.98820567  0.53869322  0.18216055    -0.79600
O400        O  0.96370936  0.48960139  0.18804898    -0.89900
C401        C  0.00225803  0.59858422  0.16040991     0.84000
O402        O  0.97901295  0.47391495  0.16546413    -0.68100
O403        O  0.93989502  0.54367179  0.12570735    -0.87400
C404        C  0.00108371  0.49716939  0.16041263     0.84800
C405        C  0.98107633  0.51773975  0.19039426     1.06400
H406        H  0.97464637  0.53130482  0.14197039     0.38200
O407        O  0.96128675  0.53399507  0.14764682    -1.10100
O408        O  0.89980204  0.51032609  0.15560993    -0.66700
Ni409      Ni  0.92542697  0.49570220  0.14952637     1.26300
O410        O  0.00236006  0.52260930  0.15938394    -0.66900
O411        O  0.91118289  0.49527625  0.13242311    -0.79200
C412        C  0.89445779  0.43416490  0.15556524     0.84200
O413        O  0.89126652  0.45612918  0.15214825    -0.66400
Ni414      Ni  0.95817151  0.56658204  0.14095702     1.27400
Ni415      Ni  0.97562287  0.53723326  0.16477944     1.26100
H416        H  0.92684652  0.50119164  0.17229945     0.38700
O417        O  0.51380117  0.64945100  0.32287591    -0.81200
O418        O  0.47310065  0.50976581  0.32526420    -0.65900
O419        O  0.48013933  0.58655890  0.31970301    -1.12500
C420        C  0.44564293  0.57236445  0.36323864     1.05700
O421        O  0.42789078  0.49260025  0.33409392    -0.79100
O422        O  0.40331365  0.52680933  0.34207672    -0.66700
Ni423      Ni  0.51729702  0.61912266  0.31338719     1.34900
C424        C  0.40315118  0.54770775  0.33557529     0.84400
O425        O  0.48709511  0.54571034  0.30471280    -0.79600
O426        O  0.52485832  0.59338417  0.30227494    -0.89900
C427        C  0.44763168  0.48789523  0.32888183     0.84000
O428        O  0.53994245  0.61581771  0.32698549    -0.68100
O429        O  0.44123743  0.54562943  0.36240200    -0.87400
C430        C  0.54195664  0.59281800  0.32967288     0.84800
C431        C  0.50932869  0.56609328  0.29836510     1.06400
H432        H  0.48671872  0.55857823  0.34479721     0.38200
O433        O  0.46926525  0.55353920  0.33954275    -1.10100
O434        O  0.42730396  0.57048692  0.33143343    -0.66700
Ni435      Ni  0.46869941  0.58983018  0.33686622     1.26300
O436        O  0.52117240  0.56588836  0.32680274    -0.66900
O437        O  0.45591191  0.59152657  0.35408040    -0.79200
C438        C  0.49252291  0.65042609  0.32876997     0.84200
O439        O  0.47008464  0.62701726  0.33356698    -0.66400
Ni440      Ni  0.43553910  0.52055100  0.34786408     1.27400
Ni441      Ni  0.47832360  0.54885436  0.32224933     1.26100
H442        H  0.46431532  0.58347831  0.31380552     0.38700
O443        O  0.63570198  0.51919297  0.15748466    -0.81200
O444        O  0.49987231  0.47527463  0.16137311    -0.65900
O445        O  0.57612260  0.47935384  0.16482400    -1.12500
C446        C  0.55173157  0.43471454  0.12368274     1.05700
O447        O  0.47951402  0.42687322  0.15671470    -0.79100
O448        O  0.51339783  0.40048105  0.15228491    -0.66700
Ni449      Ni  0.61031676  0.51375961  0.17200061     1.34900
C450        C  0.53883191  0.40279682  0.15464363     0.84400
O451        O  0.53960462  0.49262446  0.18066745    -0.79600
O452        O  0.58763426  0.51114461  0.18717861    -0.89900
C453        C  0.47660403  0.44920784  0.15994814     0.84000
O454        O  0.60362408  0.54390035  0.16491351    -0.68100
O455        O  0.52466340  0.42293007  0.12800035    -0.87400
C456        C  0.58214377  0.54370446  0.15881859     0.84800
C457        C  0.56013883  0.50390276  0.18924428     1.06400
H458        H  0.53933349  0.47885457  0.14051009     0.38200
O459        O  0.53831727  0.46436622  0.14669088    -1.10100
O460        O  0.56387280  0.42719715  0.15297034    -0.66700
Ni461      Ni  0.57717587  0.46768346  0.14740551     1.26300
O462        O  0.55639698  0.51989592  0.15707295    -0.66900
O463        O  0.57516466  0.45434057  0.12989341    -0.79200
C464        C  0.63991493  0.49919438  0.15235263     0.84200
O465        O  0.61750322  0.47397438  0.14884091    -0.66400
Ni466      Ni  0.50379563  0.42623467  0.14261372     1.27400
Ni467      Ni  0.53869251  0.47884604  0.16350774     1.26100
H468        H  0.57232303  0.46268114  0.17033412     0.38700
O469        O  0.22373748  0.49581127  0.49342200    -0.81200
O470        O  0.26447880  0.40146515  0.49549382    -0.65900
O471        O  0.26107073  0.47322280  0.50024948    -1.12500
C472        C  0.30208265  0.49550256  0.45817435     1.05700
O473        O  0.31160139  0.42945534  0.48866921    -0.79100
O474        O  0.33937892  0.48908823  0.48245495    -0.66700
Ni475      Ni  0.22663865  0.47265983  0.50724856     1.34900
C476        C  0.33863543  0.51117285  0.48756392     0.84400
O477        O  0.24980582  0.42401869  0.51551141    -0.79600
O478        O  0.22721894  0.44983676  0.52173031    -0.89900
C479        C  0.29027892  0.40466308  0.49318662     0.84000
O480        O  0.19636732  0.43712452  0.49901930    -0.68100
O481        O  0.30882676  0.47500069  0.46000888    -0.87400
C482        C  0.19609445  0.41481478  0.49370595     0.84800
C483        C  0.23672929  0.43154347  0.52390837     1.06400
H484        H  0.25704835  0.43839173  0.47530980     0.38200
O485        O  0.27337325  0.45096856  0.48108927    -1.10100
O486        O  0.31427941  0.51160572  0.48910055    -0.66700
Ni487      Ni  0.27340615  0.48784205  0.48324533     1.26300
O488        O  0.21939257  0.41208980  0.49270930    -0.66900
O489        O  0.28746398  0.50212920  0.46618738    -0.79200
C490        C  0.24525639  0.52049859  0.48899159     0.84200
O491        O  0.27056065  0.52310573  0.48612404    -0.66400
Ni492      Ni  0.30882573  0.45234148  0.47462354     1.27400
Ni493      Ni  0.26124385  0.43653677  0.49816121     1.26100
H494        H  0.27752815  0.48565812  0.50600483     0.38700
O495        O  0.08956430  0.24857479  0.66172512    -0.81200
O496        O  0.22808568  0.34398952  0.65942811    -0.65900
O497        O  0.15013877  0.27385809  0.65467641    -1.12500
C498        C  0.16879501  0.25179207  0.69702543     1.05700
O499        O  0.24446745  0.31437465  0.66651785    -0.79100
O500        O  0.21105058  0.25619750  0.67500784    -0.66700
Ni501      Ni  0.11662454  0.27692670  0.64917004     1.34900
C502        C  0.19015914  0.23535953  0.66831074     0.84400
O503        O  0.18997136  0.32223800  0.63945880    -0.79600
O504        O  0.14056553  0.30504134  0.63578105    -0.89900
C505        C  0.24977264  0.33953573  0.66188582     0.84000
O506        O  0.12287219  0.30857120  0.66041635    -0.68100
O507        O  0.19496324  0.27550119  0.69600353    -0.87400
C508        C  0.14691384  0.33269125  0.66345203     0.84800
C509        C  0.16849792  0.31981740  0.63243527     1.06400
H510        H  0.18029268  0.30745182  0.67947731     0.38200
O511        O  0.18488773  0.29534373  0.67386506    -1.10100
O512        O  0.16707314  0.23640180  0.66461648    -0.66700
Ni513      Ni  0.14835951  0.25784052  0.67135322     1.26300
O514        O  0.17329240  0.33639883  0.66188595    -0.66900
O515        O  0.14870615  0.24222505  0.68817732    -0.79200
C516        C  0.08711412  0.22367005  0.66518161     0.84200
O517        O  0.11035769  0.22199565  0.66799686    -0.66400
Ni518      Ni  0.21857749  0.29480014  0.68104638     1.27400
Ni519      Ni  0.18836420  0.30989773  0.65678756     1.26100
H520        H  0.15272141  0.26148575  0.64841397     0.38700
O521        O  0.31387518  0.85704024  0.49384259    -0.81200
O522        O  0.17757778  0.81600520  0.49735208    -0.65900
O523        O  0.25300809  0.81813719  0.50051472    -1.12500
C524        C  0.22758710  0.77172116  0.46022172     1.05700
O525        O  0.15605575  0.76731787  0.49278079    -0.79100
O526        O  0.18996077  0.74060905  0.48956336    -0.66700
Ni527      Ni  0.28766996  0.85127115  0.50812804     1.34900
C528        C  0.21555552  0.74261211  0.49090286     0.84400
O529        O  0.21778513  0.83314843  0.51634877    -0.79600
O530        O  0.26482415  0.84808284  0.52327451    -0.89900
C531        C  0.15396737  0.79002510  0.49621837     0.84000
O532        O  0.28182512  0.88243391  0.50141780    -0.68100
O533        O  0.20078281  0.75929947  0.46486959    -0.87400
C534        C  0.26100802  0.88313215  0.49511070     0.84800
C535        C  0.23791848  0.84282757  0.52506514     1.06400
H536        H  0.21521190  0.81780629  0.47632177     0.38200
O537        O  0.21469649  0.80365469  0.48256030    -1.10100
O538        O  0.24036753  0.76651057  0.48831866    -0.66700
Ni539      Ni  0.25348929  0.80703810  0.48299749     1.26300
O540        O  0.23513725  0.85980677  0.49286394    -0.66900
O541        O  0.25075334  0.79393328  0.46553032    -0.79200
C542        C  0.31662515  0.83689442  0.48794495     0.84200
O543        O  0.29351531  0.81282575  0.48397096    -0.66400
Ni544      Ni  0.18017981  0.76497012  0.47903943     1.27400
Ni545      Ni  0.21607456  0.81868649  0.49932728     1.26100
H546        H  0.24858352  0.80100002  0.50583796     0.38700
O547        O  0.18370071  0.97895203  0.65922721    -0.81200
O548        O  0.13805242  0.83811635  0.65977608    -0.65900
O549        O  0.14827259  0.91647047  0.65435848    -1.12500
C550        C  0.11035782  0.90114001  0.69731356     1.05700
O551        O  0.09243366  0.82317308  0.66757321    -0.79100
O552        O  0.06978373  0.85791409  0.67626847    -0.66700
Ni553      Ni  0.18535338  0.94929076  0.64827396     1.34900
C554        C  0.07004591  0.87826744  0.66925465     0.84400
O555        O  0.15517921  0.87523175  0.63957162    -0.79600
O556        O  0.19037219  0.92381025  0.63597539    -0.89900
C557        C  0.11104706  0.81714224  0.66214827     0.84000
O558        O  0.20952483  0.94413417  0.66067545    -0.68100
O559        O  0.10720981  0.87484260  0.69660263    -0.87400
C560        C  0.21026254  0.92039042  0.66334011     0.84800
C561        C  0.17616630  0.89586642  0.63278584     1.06400
H562        H  0.15257046  0.88764864  0.67941920     0.38200
O563        O  0.13545529  0.88290179  0.67399596    -1.10100
O564        O  0.09443764  0.90042294  0.66494033    -0.66700
Ni565      Ni  0.13529896  0.91935789  0.67119734     1.26300
O566        O  0.18767058  0.89375011  0.66153040    -0.66900
O567        O  0.12070319  0.92037613  0.68815826    -0.79200
C568        C  0.16125447  0.98029995  0.66375427     0.84200
O569        O  0.13743579  0.95679993  0.66764996    -0.66400
Ni570      Ni  0.10095481  0.85012988  0.68185478     1.27400
Ni571      Ni  0.14527292  0.87818751  0.65686953     1.26100
H572        H  0.13289176  0.91365128  0.64824896     0.38700
O573        O  0.58540344  0.77185669  0.49163221    -0.81200
O574        O  0.68046568  0.91213806  0.48983398    -0.65900
O575        O  0.61143640  0.83388302  0.49609525    -1.12500
C576        C  0.58942474  0.84377319  0.45249760     1.05700
O577        O  0.64997309  0.92547224  0.48077887    -0.79100
O578        O  0.59219378  0.88944692  0.47229501    -0.66700
Ni579      Ni  0.61507069  0.80186821  0.50300705     1.34900
C580        C  0.57241386  0.87047167  0.47997826     0.84400
O581        O  0.65907207  0.87678729  0.51076146    -0.79600
O582        O  0.64406302  0.82847077  0.51553287    -0.89900
C583        C  0.67463774  0.93251938  0.48652008     0.84000
O584        O  0.64604534  0.80653580  0.49161244    -0.68100
O585        O  0.61296845  0.87016256  0.45277407    -0.87400
C586        C  0.67049398  0.83020657  0.48847992     0.84800
C587        C  0.65764044  0.85662063  0.51833723     1.06400
H588        H  0.64535352  0.86000130  0.47091836     0.38200
O589        O  0.63289184  0.86529658  0.47595875    -1.10100
O590        O  0.57428262  0.84880278  0.48480912    -0.66700
Ni591      Ni  0.59558280  0.82906990  0.47921242     1.26300
O592        O  0.67440412  0.85679550  0.48949149    -0.66900
O593        O  0.57981598  0.82596520  0.46213929    -0.79200
C594        C  0.56078581  0.76916348  0.48747610     0.84200
O595        O  0.55972752  0.79186360  0.48333402    -0.66400
Ni596      Ni  0.63144668  0.89675716  0.46704771     1.27400
Ni597      Ni  0.64711332  0.87208831  0.49322476     1.26100
H598        H  0.59873707  0.83708674  0.50196865     0.38700
O599        O  0.81108879  0.87293227  0.66274633    -0.81200
O600        O  0.72725736  0.92546150  0.65348718    -0.65900
O601        O  0.79600076  0.91471278  0.65366040    -1.12500
C602        C  0.80983530  0.95604304  0.69535166     1.05700
O603        O  0.75663831  0.97224592  0.66015286    -0.79100
O604        O  0.81481428  0.99479227  0.66766462    -0.66700
Ni605      Ni  0.79367364  0.87872539  0.64749383     1.34900
C606        C  0.83694277  0.99106402  0.66507942     0.84400
O607        O  0.75261601  0.90773570  0.63557248    -0.79600
O608        O  0.77652857  0.88194553  0.63162178    -0.89900
C609        C  0.73153645  0.95174668  0.65553552     0.84000
O610        O  0.75469340  0.85077894  0.65407337    -0.68100
O611        O  0.79516628  0.96821023  0.69108158    -0.87400
C612        C  0.73225547  0.85277319  0.65786753     0.84800
C613        C  0.76060712  0.89338836  0.62807797     1.06400
H614        H  0.75572968  0.91536768  0.67614197     0.38200
O615        O  0.77123413  0.93050466  0.67066407    -1.10100
O616        O  0.83540002  0.96571039  0.66609584    -0.66700
Ni617      Ni  0.80587563  0.92555946  0.67127150     1.26300
O618        O  0.73215490  0.87754274  0.65826155    -0.66900
O619        O  0.81503216  0.93795678  0.68890218    -0.79200
C620        C  0.83595270  0.89307903  0.66759101     0.84200
O621        O  0.83919828  0.91832834  0.67098177    -0.66400
Ni622      Ni  0.77609565  0.96869933  0.67535324     1.27400
Ni623      Ni  0.76096032  0.91878347  0.65320783     1.26100
H624        H  0.81118381  0.93078573  0.64841063     0.38700
O625        O  0.76812371  0.58170072  0.99176915    -0.81200
O626        O  0.90621687  0.67896636  0.99092536    -0.65900
O627        O  0.83012579  0.60576103  0.98623309    -1.12500
C628        C  0.84724471  0.58667185  0.02878312     1.05700
O629        O  0.92492688  0.65129994  0.99798248    -0.79100
O630        O  0.89182903  0.59167570  0.00420644    -0.66700
Ni631      Ni  0.79628381  0.60499919  0.97835184     1.34900
C632        C  0.86804727  0.56852565  0.00004783     0.84400
O633        O  0.86930457  0.65505361  0.97079957    -0.79600
O634        O  0.82104286  0.62732545  0.96399640    -0.89900
C635        C  0.92889441  0.67609462  0.99346798     0.84000
O636        O  0.80106991  0.64079275  0.98605700    -0.68100
O637        O  0.87517777  0.60570922  0.02657157    -0.87400
C638        C  0.82295859  0.66375555  0.99135967     0.84800
C639        C  0.84906792  0.64654028  0.96215886     1.06400
H640        H  0.86124113  0.64281710  0.01101347     0.38200
O641        O  0.86453573  0.62973539  0.00543811    -1.10100
O642        O  0.84292259  0.56760332  0.99887806    -0.66700
Ni643      Ni  0.82686231  0.59286338  0.00358658     1.26300
O644        O  0.84917753  0.66700914  0.99292890    -0.66900
O645        O  0.82569289  0.58062942  0.02099763    -0.79200
C646        C  0.76527388  0.55813216  0.99709297     0.84200
O647        O  0.78827613  0.55741157  0.00106691    -0.66400
Ni648      Ni  0.89851619  0.62839391  0.01198967     1.27400
Ni649      Ni  0.86741687  0.64317646  0.98822757     1.26100
H650        H  0.83457696  0.59301800  0.98096236     0.38700
O651        O  0.87538269  0.81471063  0.82541536    -0.81200
O652        O  0.92261752  0.72327719  0.82289592    -0.65900
O653        O  0.91380743  0.79164271  0.82995802    -1.12500
C654        C  0.95057192  0.81881857  0.78721504     1.05700
O655        O  0.96780087  0.75435907  0.81478392    -0.79100
O656        O  0.99097507  0.81307114  0.80827857    -0.66700
Ni657      Ni  0.87854287  0.78806409  0.83754981     1.34900
C658        C  0.99070718  0.83315698  0.81530017     0.84400
O659        O  0.90755885  0.74252100  0.84389268    -0.79600
O660        O  0.87920136  0.76198207  0.85065280    -0.89900
C661        C  0.94899252  0.72894489  0.81973575     0.84000
O662        O  0.85006774  0.75458231  0.82765964    -0.68100
O663        O  0.95468366  0.79628834  0.78739881    -0.87400
C664        C  0.85045807  0.73222237  0.82272388     0.84800
C665        C  0.89174965  0.74614904  0.85235473     1.06400
H666        H  0.90833599  0.76001642  0.80428189     0.38200
O667        O  0.92555613  0.77239879  0.80969245    -1.10100
O668        O  0.96635047  0.83170273  0.81898781    -0.66700
Ni669      Ni  0.92516195  0.80865242  0.81324530     1.26300
O670        O  0.87410125  0.72992448  0.82215417    -0.66900
O671        O  0.93876430  0.82573306  0.79643365    -0.79200
C672        C  0.89653821  0.83995939  0.82117807     0.84200
O673        O  0.92170326  0.84306720  0.81758460    -0.66400
Ni674      Ni  0.95990949  0.77525854  0.80140295     1.27400
Ni675      Ni  0.91642457  0.75646360  0.82667386     1.26100
H676        H  0.93007763  0.80403902  0.83579956     0.38700
O677        O  0.85497192  0.30898348  0.99733553    -0.81200
O678        O  0.81178451  0.17327396  0.98864036    -0.65900
O679        O  0.81646996  0.24996930  0.98880292    -1.12500
C680        C  0.76928401  0.22407954  0.02836810     1.05700
O681        O  0.76868175  0.14826161  0.99968767    -0.79100
O682        O  0.74282636  0.18416499  0.99787406    -0.66700
Ni683      Ni  0.85133499  0.28542260  0.98244802     1.34900
C684        C  0.74252070  0.20879759  0.99728152     0.84400
O685        O  0.82640212  0.21533511  0.97084537    -0.79600
O686        O  0.85046164  0.26523547  0.96683163    -0.89900
C687        C  0.78944906  0.14880471  0.99278999     0.84000
O688        O  0.88093735  0.27786987  0.98960357    -0.68100
O689        O  0.75557060  0.19822903  0.02304424    -0.87400
C690        C  0.88076395  0.25432936  0.99341923     0.84800
C691        C  0.84054239  0.23794339  0.96336712     1.06400
H692        H  0.81866545  0.21064882  0.01180190     0.38200
O693        O  0.80335999  0.21008644  0.00620871    -1.10100
O694        O  0.76441778  0.23371457  0.00138061    -0.66700
Ni695      Ni  0.80581335  0.24872387  0.00644174     1.26300
O696        O  0.85706309  0.22809485  0.99355955    -0.66900
O697        O  0.79416347  0.24579099  0.02411592    -0.79200
C698        C  0.83341123  0.31133199  0.00203706     0.84200
O699        O  0.80947294  0.28785610  0.00582139    -0.66400
Ni700      Ni  0.76452371  0.17605476  0.01069792     1.27400
Ni701      Ni  0.81517028  0.21217145  0.98853429     1.26100
H702        H  0.79982053  0.24753074  0.98358629     0.38700
O703        O  0.96787203  0.17268879  0.83183957    -0.81200
O704        O  0.82793376  0.13491843  0.82907677    -0.65900
O705        O  0.90516827  0.14071914  0.83262099    -1.12500
C706        C  0.88515306  0.10646878  0.78976049     1.05700
O707        O  0.80936132  0.08777264  0.82285545    -0.79100
O708        O  0.84624961  0.06523466  0.81740210    -0.66700
Ni709      Ni  0.93699385  0.17629627  0.84057621     1.34900
C710        C  0.87223223  0.06838760  0.81923778     0.84400
O711        O  0.86444927  0.14621214  0.84886994    -0.79600
O712        O  0.91121471  0.18454165  0.85131272    -0.89900
C713        C  0.80530469  0.10886146  0.82689881     0.84000
O714        O  0.93547378  0.20025294  0.82719530    -0.68100
O715        O  0.85783502  0.09189705  0.79384512    -0.87400
C716        C  0.91261321  0.20228431  0.82401904     0.84800
C717        C  0.88410031  0.16841290  0.85524761     1.06400
H718        H  0.86892039  0.14468712  0.80852771     0.38200
O719        O  0.86852429  0.12928309  0.81396632    -1.10100
O720        O  0.89663395  0.09354096  0.81788255    -0.66700
Ni721      Ni  0.90810310  0.13463607  0.81439584     1.26300
O722        O  0.88520797  0.18181862  0.82671026    -0.66900
O723        O  0.90756717  0.12625006  0.79636951    -0.79200
C724        C  0.97086747  0.15913234  0.82228529     0.84200
O725        O  0.94897065  0.14235009  0.81488527    -0.66400
Ni726      Ni  0.83536726  0.09121075  0.80866369     1.27400
Ni727      Ni  0.86686032  0.13879242  0.83125629     1.26100
H728        H  0.90230331  0.12338285  0.83742901     0.38700
O729        O  0.49658562  0.21968062  0.99060434    -0.81200
O730        O  0.40133696  0.26246212  0.98845476    -0.65900
O731        O  0.47307572  0.25704676  0.98501944    -1.12500
C732        C  0.48547061  0.28653737  0.02896459     1.05700
O733        O  0.43060569  0.30719013  0.99719871    -0.79100
O734        O  0.48667126  0.33063425  0.00704880    -0.66700
Ni735      Ni  0.47324478  0.22386875  0.97716921     1.34900
C736        C  0.50898176  0.33141700  0.00136378     0.84400
O737        O  0.42673278  0.25027140  0.96860090    -0.79600
O738        O  0.45072926  0.22560621  0.96279405    -0.89900
C739        C  0.40636827  0.28871534  0.99136802     0.84000
O740        O  0.43764797  0.19339324  0.98529371    -0.68100
O741        O  0.46406739  0.29199440  0.02707711    -0.87400
C742        C  0.41390103  0.19207730  0.98967899     0.84800
C743        C  0.43402071  0.23682573  0.96031212     1.06400
H744        H  0.43377541  0.24758769  0.00895306     0.38200
O745        O  0.44741485  0.26529259  0.00403042    -1.10100
O746        O  0.50917055  0.30772910  0.99808433    -0.66700
Ni747      Ni  0.48481608  0.26594338  0.00259340     1.26300
O748        O  0.41001846  0.21476296  0.99011702    -0.66900
O749        O  0.49600452  0.27659708  0.02034203    -0.79200
C750        C  0.52025852  0.24061724  0.99597302     0.84200
O751        O  0.52091515  0.26410160  0.00025565    -0.66400
Ni752      Ni  0.44729243  0.29844587  0.01190808     1.27400
Ni753      Ni  0.43615502  0.25766421  0.98641060     1.26100
H754        H  0.48670727  0.27441009  0.97990908     0.38700
O755        O  0.23909715  0.09297742  0.82736107    -0.81200
O756        O  0.33954291  0.22969744  0.82515541    -0.65900
O757        O  0.26669950  0.15500154  0.83222099    -1.12500
C758        C  0.24238711  0.16931298  0.78969253     1.05700
O759        O  0.31018763  0.24714276  0.81874628    -0.79100
O760        O  0.24985618  0.21477774  0.81136504    -0.66700
Ni761      Ni  0.26606087  0.12134729  0.83992396     1.34900
C762        C  0.22837444  0.19374581  0.81779724     0.84400
O763        O  0.31895990  0.19456034  0.84611222    -0.79600
O764        O  0.29212939  0.14668954  0.85336865    -0.89900
C765        C  0.33577527  0.25191532  0.82280191     0.84000
O766        O  0.29918134  0.12406300  0.83064718    -0.68100
O767        O  0.26564920  0.19588301  0.79040970    -0.87400
C768        C  0.32176919  0.14486899  0.82469484     0.84800
C769        C  0.31152829  0.17473437  0.85489534     1.06400
H770        H  0.29891748  0.18131403  0.80640879     0.38200
O771        O  0.28768878  0.18669918  0.81219492    -1.10100
O772        O  0.22883256  0.17048661  0.82156167    -0.66700
Ni773      Ni  0.25000381  0.15098677  0.81549649     1.26300
O774        O  0.32660834  0.17176686  0.82351771    -0.66900
O775        O  0.23386728  0.14948796  0.79860943    -0.79200
C776        C  0.21459288  0.09064678  0.82330137     0.84200
O777        O  0.21387345  0.11381340  0.81954477    -0.66400
Ni778      Ni  0.28760445  0.22034773  0.80480088     1.27400
Ni779      Ni  0.30422195  0.19128716  0.82897820     1.26100
H780        H  0.25560692  0.16043162  0.83806797     0.38700
O781        O  0.63128154  0.58667161  0.64668895    -0.81200
O782        O  0.59459338  0.44856052  0.64468864    -0.65900
O783        O  0.59599370  0.52370666  0.64147610    -1.12500
C784        C  0.57007958  0.50729143  0.68590885     1.05700
O785        O  0.55189673  0.42767565  0.65567223    -0.79100
O786        O  0.52518768  0.45798999  0.66284252    -0.66700
Ni787      Ni  0.63135181  0.55824157  0.63452783     1.34900
C788        C  0.52227068  0.47830418  0.65728537     0.84400
O789        O  0.60388321  0.48507612  0.62481290    -0.79600
O790        O  0.63501044  0.53464944  0.62106169    -0.89900
C791        C  0.57201116  0.42536070  0.64953408     0.84000
O792        O  0.66073539  0.55463669  0.64455894    -0.68100
O793        O  0.56208306  0.47969588  0.68395725    -0.87400
C794        C  0.66179493  0.53083062  0.64682153     0.84800
C795        C  0.62298758  0.50693594  0.61787690     1.06400
H796        H  0.60802742  0.49518148  0.66508685     0.38200
O797        O  0.58957271  0.48974145  0.66051249    -1.10100
O798        O  0.54425600  0.50513158  0.65535191    -0.66700
Ni799      Ni  0.58736955  0.52567002  0.65920429     1.26300
O800        O  0.63876636  0.50442662  0.64584696    -0.66900
O801        O  0.57959695  0.52711308  0.67706382    -0.79200
C802        C  0.61044722  0.58692103  0.65327922     0.84200
O803        O  0.58760494  0.56276794  0.65733266    -0.66400
Ni804      Ni  0.55837585  0.45543895  0.66931775     1.27400
Ni805      Ni  0.59616163  0.48649458  0.64269223     1.26100
H806        H  0.57884514  0.52021210  0.63632934     0.38700
O807        O  0.58128668  0.63628449  0.82955903    -0.81200
O808        O  0.43939920  0.58501247  0.83054769    -0.65900
O809        O  0.51908290  0.59716736  0.83501056    -1.12500
C810        C  0.50837838  0.55433561  0.79462506     1.05700
O811        O  0.42251326  0.55308224  0.81402314    -0.79100
O812        O  0.45407549  0.52592978  0.82216507    -0.66700
Ni813      Ni  0.55083841  0.63621426  0.84047919     1.34900
C814        C  0.47639592  0.52316144  0.82559359     0.84400
O815        O  0.47712737  0.60151035  0.85043816    -0.79600
O816        O  0.52480339  0.64040149  0.85248151    -0.89900
C817        C  0.41867955  0.56813650  0.82269466     0.84000
O818        O  0.54345662  0.65935995  0.82820215    -0.68100
O819        O  0.48148574  0.53779720  0.79871258    -0.87400
C820        C  0.51807439  0.65759769  0.82635527     0.84800
C821        C  0.49736067  0.62511108  0.85622740     1.06400
H822        H  0.48876520  0.60121915  0.80970204     0.38200
O823        O  0.48530808  0.58442486  0.81509791    -1.10100
O824        O  0.50407017  0.54349314  0.82320244    -0.66700
Ni825      Ni  0.52320066  0.58636267  0.81804939     1.26300
O826        O  0.49293952  0.63343425  0.82841400    -0.66900
O827        O  0.52754736  0.57748538  0.80073290    -0.79200
C828        C  0.58423210  0.61455869  0.82546968     0.84200
O829        O  0.56158045  0.58997105  0.82162429    -0.66400
Ni830      Ni  0.45442128  0.54774472  0.80744208     1.27400
Ni831      Ni  0.47976572  0.59209218  0.83279936     1.26100
H832        H  0.51776797  0.58223469  0.84097902     0.38700
O833        O  0.41544199  0.96567568  0.82392603    -0.81200
O834        O  0.46979819  0.88179079  0.83061540    -0.65900
O835        O  0.45581396  0.94798306  0.83277674    -1.12500
C836        C  0.48541078  0.96043288  0.78879898     1.05700
O837        O  0.51240216  0.90968618  0.81997088    -0.79100
O838        O  0.53218814  0.96473343  0.80970986    -0.66700
Ni839      Ni  0.41689984  0.94089589  0.83750502     1.34900
C840        C  0.53329583  0.98489849  0.81711302     0.84400
O841        O  0.45254865  0.90512534  0.84998628    -0.79600
O842        O  0.41510500  0.91597335  0.85164782    -0.89900
C843        C  0.49428424  0.88542177  0.82585534     0.84000
O844        O  0.39270974  0.90568802  0.82734231    -0.68100
O845        O  0.49114477  0.93917235  0.79035649    -0.87400
C846        C  0.39558774  0.88267799  0.82616759     0.84800
C847        C  0.43030194  0.90435180  0.85595563     1.06400
H848        H  0.45052531  0.91036069  0.80963603     0.38200
O849        O  0.46852953  0.92439807  0.81430481    -1.10100
O850        O  0.50963175  0.98472584  0.82115597    -0.66700
Ni851      Ni  0.46764655  0.96083817  0.81558934     1.26300
O852        O  0.42043771  0.88365971  0.82836498    -0.66900
O853        O  0.47909352  0.97262644  0.79803667    -0.79200
C854        C  0.43632585  0.99065349  0.81931063     0.84200
O855        O  0.46308210  0.99548424  0.81766641    -0.66400
Ni856      Ni  0.50093866  0.92466286  0.80545156     1.27400
Ni857      Ni  0.46154189  0.91415833  0.83210044     1.26100
H858        H  0.47049114  0.96278636  0.83860085     0.38700
O859        O  0.48659541  0.09146383  0.64643615    -0.81200
O860        O  0.62001299  0.18550215  0.64803298    -0.65900
O861        O  0.54741736  0.11093175  0.64161523    -1.12500
C862        C  0.55628638  0.09131415  0.68511825     1.05700
O863        O  0.64113598  0.16264910  0.65794706    -0.79100
O864        O  0.60848167  0.10220385  0.66039606    -0.66700
Ni865      Ni  0.51498161  0.11030345  0.63260288     1.34900
C866        C  0.58652109  0.07824460  0.65572708     0.84400
O867        O  0.58615461  0.16243773  0.62692328    -0.79600
O868        O  0.54113525  0.12898168  0.61817103    -0.89900
C869        C  0.64321947  0.18584260  0.65250015     0.84000
O870        O  0.52041035  0.14887370  0.63756650    -0.68100
O871        O  0.58479761  0.10819698  0.68323536    -0.87400
C872        C  0.54008927  0.17024326  0.64446094     0.84800
C873        C  0.56773014  0.15221670  0.61747329     1.06400
H874        H  0.57346622  0.14728187  0.66698000     0.38200
O875        O  0.57825724  0.13481200  0.66169054    -1.10100
O876        O  0.55923663  0.07285344  0.65543150    -0.66700
Ni877      Ni  0.54111407  0.09764801  0.65901469     1.26300
O878        O  0.56304475  0.17018390  0.64895226    -0.66900
O879        O  0.53641544  0.08608849  0.67660624    -0.79200
C880        C  0.48059858  0.06760579  0.65257170     0.84200
O881        O  0.50179532  0.06281555  0.65578048    -0.66400
Ni882      Ni  0.61115361  0.13485820  0.66998584     1.27400
Ni883      Ni  0.58321911  0.14879821  0.64440370     1.26100
H884        H  0.55314345  0.09861494  0.63673895     0.38700
O885        O  0.07844267  0.47263070  0.82606226    -0.81200
O886        O  0.16853957  0.60959353  0.83445381    -0.65900
O887        O  0.09843572  0.53044797  0.83645220    -1.12500
C888        C  0.08304505  0.55346141  0.79391202     1.05700
O889        O  0.14064276  0.62725450  0.82660566    -0.79100
O890        O  0.08365903  0.59500151  0.81820784    -0.66700
Ni891      Ni  0.10217374  0.49629392  0.84056485     1.34900
C892        C  0.06173503  0.57285697  0.82387704     0.84400
O893        O  0.14610490  0.56709281  0.85310904    -0.79600
O894        O  0.12553574  0.51669656  0.85546367    -0.89900
C895        C  0.16560565  0.63177444  0.83112582     0.84000
O896        O  0.13886086  0.50664346  0.83149527    -0.68100
O897        O  0.10292882  0.58099658  0.79629936    -0.87400
C898        C  0.16152768  0.53220173  0.82855028     0.84800
C899        C  0.14215324  0.54390828  0.85938660     1.06400
H900        H  0.13479029  0.56568275  0.81294906     0.38200
O901        O  0.12162774  0.56886627  0.81854467    -1.10100
O902        O  0.06024796  0.54755168  0.82574808    -0.66700
Ni903      Ni  0.08479352  0.53111470  0.81955213     1.26300
O904        O  0.16156013  0.55678820  0.82982817    -0.66900
O905        O  0.07288840  0.53249924  0.80230559    -0.79200
C906        C  0.05321222  0.46920767  0.82230486     0.84200
O907        O  0.04962172  0.49182632  0.82126368    -0.66400
Ni908      Ni  0.12168501  0.60303212  0.81170282     1.27400
Ni909      Ni  0.13428822  0.56936994  0.83582673     1.26100
H910        H  0.08465559  0.53119608  0.84257178     0.38700
O911        O  0.97790839  0.43530433  0.64721470    -0.81200
O912        O  0.88594992  0.47667515  0.64700342    -0.65900
O913        O  0.96009009  0.47763760  0.64176831    -1.12500
C914        C  0.98180557  0.51237398  0.68382666     1.05700
O915        O  0.90884578  0.52141692  0.65666214    -0.79100
O916        O  0.96941152  0.54768731  0.65580473    -0.66700
Ni917      Ni  0.96026855  0.44519128  0.63310481     1.34900
C918        C  0.99462182  0.54945194  0.65365630     0.84400
O919        O  0.90916911  0.46417302  0.62654625    -0.79600
O920        O  0.94278059  0.45265970  0.61836593    -0.89900
C921        C  0.88575499  0.49976250  0.65124570     0.84000
O922        O  0.92101840  0.41252300  0.63801059    -0.68100
O923        O  0.96928841  0.52726403  0.68027204    -0.87400
C924        C  0.89979517  0.41116750  0.64483346     0.84800
C925        C  0.91968948  0.45580177  0.61733733     1.06400
H926        H  0.92222949  0.47027124  0.66689890     0.38200
O927        O  0.93575638  0.48647328  0.66125560    -1.10100
O928        O  0.99925277  0.52764157  0.65584295    -0.66700
Ni929      Ni  0.97189971  0.48468630  0.65931831     1.26300
O930        O  0.90021782  0.43455691  0.64905893    -0.66900
O931        O  0.98169871  0.49172226  0.67703645    -0.79200
C932        C  0.00107947  0.45314477  0.65382527     0.84200
O933        O  0.00603102  0.47922302  0.65692116    -0.66400
Ni934      Ni  0.93934368  0.52256050  0.66781961     1.27400
Ni935      Ni  0.92241657  0.47609154  0.64396693     1.26100
H936        H  0.97319313  0.49570769  0.63692663     0.38700
C937        C  0.07127396  0.54548978  0.78068765    -0.03500
C938        C  0.04803896  0.51600734  0.77761756    -0.06100
C939        C  0.03705436  0.50872245  0.76510911    -0.21200
C940        C  0.04891352  0.53070590  0.75543100     0.24500
C941        C  0.07258853  0.56002276  0.75845123    -0.18800
C942        C  0.08346558  0.56733770  0.77093943    -0.08700
C943        C  0.03638153  0.52217570  0.74230077    -0.19000
C944        C  0.03833936  0.54250851  0.73365014    -0.23800
C945        C  0.02451344  0.53418334  0.72076141     0.26600
C946        C  0.01695707  0.55377879  0.71467568    -0.20600
C947        C  0.00329839  0.54670985  0.70266804    -0.10200
C948        C  0.99725298  0.52000944  0.69636773    -0.10800
C949        C  0.00564940  0.50075984  0.70227223    -0.03700
C950        C  0.01914702  0.50775137  0.71437622    -0.18800
H951        H  0.03823581  0.49855855  0.78487732     0.10300
H952        H  0.01901537  0.48590263  0.76301205     0.10400
H953        H  0.08320549  0.57735364  0.75120724     0.10000
H954        H  0.10165777  0.59014212  0.77291704     0.11100
H955        H  0.02355356  0.49823920  0.74001106     0.11200
H956        H  0.04856093  0.56610704  0.73635479     0.13100
H957        H  0.02119453  0.57444509  0.71932339     0.09600
H958        H  0.99744298  0.56222511  0.69832838     0.11700
H959        H  0.00148224  0.48014511  0.69761058     0.08300
H960        H  0.02558120  0.49260107  0.71860969     0.11100
C961        C  0.67361435  0.21334436  0.65109638    -0.03500
C962        C  0.67703497  0.24006199  0.64577804    -0.06100
C963        C  0.70569541  0.26625396  0.64509310    -0.21200
C964        C  0.73155765  0.26628535  0.64960192     0.24500
C965        C  0.72814589  0.23948870  0.65483339    -0.18800
C966        C  0.69955108  0.21336924  0.65553640    -0.08700
C967        C  0.76130190  0.29501186  0.64932106    -0.19000
C968        C  0.78831132  0.29644271  0.64993192    -0.23800
C969        C  0.81749183  0.32558789  0.64957999     0.26600
C970        C  0.84265962  0.32702212  0.64352319    -0.20600
C971        C  0.86988962  0.35462785  0.64236759    -0.10200
C972        C  0.87258391  0.38126486  0.64745333    -0.10800
C973        C  0.84781413  0.37940576  0.65413917    -0.03700
C974        C  0.82057080  0.35189341  0.65518270    -0.18800
H975        H  0.65753284  0.24088284  0.64231857     0.10300
H976        H  0.70764702  0.28664604  0.64109740     0.10400
H977        H  0.74726193  0.23869644  0.65875170     0.10000
H978        H  0.69774381  0.19326428  0.65977115     0.11100
H979        H  0.76089469  0.31583052  0.64812198     0.11200
H980        H  0.78933022  0.27584215  0.64983149     0.13100
H981        H  0.84090911  0.30692761  0.63928726     0.09600
H982        H  0.88851251  0.35522277  0.63718369     0.11700
H983        H  0.84913129  0.39939267  0.65827366     0.08300
H984        H  0.80189181  0.35129894  0.66031179     0.11100
C985        C  0.54593577  0.07728576  0.69789974    -0.03500
C986        C  0.56539508  0.08899488  0.70850012    -0.06100
C987        C  0.55568041  0.07618434  0.72060913    -0.21200
C988        C  0.52660507  0.05099152  0.72236154     0.24500
C989        C  0.50701395  0.03917795  0.71179920    -0.18800
C990        C  0.51654964  0.05234045  0.69969198    -0.08700
C991        C  0.51743913  0.03804484  0.73537935    -0.19000
C992        C  0.49897538  0.00830955  0.73759712    -0.23800
C993        C  0.49333193  0.99551184  0.75070371     0.26600
C994        C  0.49045324  0.96713626  0.75263351    -0.20600
C995        C  0.48749889  0.95553657  0.76498851    -0.10200
C996        C  0.48673840  0.97185869  0.77565624    -0.10800
C997        C  0.48817175  0.99964536  0.77364677    -0.03700
C998        C  0.49154695  0.01141470  0.76130279    -0.18800
H999        H  0.58806885  0.10833136  0.70747624     0.10300
H1000       H  0.57109301  0.08576323  0.72862462     0.10400
H1001       H  0.48421363  0.02013575  0.71291251     0.10000
H1002       H  0.50099714  0.04286995  0.69172062     0.11100
H1003       H  0.52857384  0.05313913  0.74340059     0.11200
H1004       H  0.49038253  0.99265431  0.72959742     0.13100
H1005       H  0.49148580  0.95436243  0.74459452     0.09600
H1006       H  0.48610541  0.93390583  0.76618826     0.11700
H1007       H  0.48739790  0.01266637  0.78163965     0.08300
H1008       H  0.49286677  0.03299579  0.76007222     0.11100
C1009       C  0.36875093  0.85285059  0.82310414    -0.03500
C1010       C  0.37196105  0.82729165  0.82200228    -0.06100
C1011       C  0.34652950  0.79829599  0.82149264    -0.21200
C1012       C  0.31729202  0.79405276  0.82218848     0.24500
C1013       C  0.31388714  0.81960772  0.82244641    -0.18800
C1014       C  0.33942676  0.84876201  0.82290594    -0.08700
C1015       C  0.29123673  0.76262305  0.82297238    -0.19000
C1016       C  0.26499467  0.75515334  0.82891048    -0.23800
C1017       C  0.24003658  0.72335282  0.83044167     0.26600
C1018       C  0.21009758  0.71727033  0.83098227    -0.20600
C1019       C  0.18592220  0.68749940  0.83171549    -0.10200
C1020       C  0.19124174  0.66319890  0.83218959    -0.10800
C1021       C  0.22127497  0.66934722  0.83242979    -0.03700
C1022       C  0.24548191  0.69915460  0.83152937    -0.18800
H1023       H  0.39417241  0.82953423  0.82207230     0.10300
H1024       H  0.34975318  0.77901122  0.82112228     0.10400
H1025       H  0.29163322  0.81720164  0.82249850     0.10000
H1026       H  0.33616216  0.86796660  0.82365287     0.11100
H1027       H  0.29458885  0.74485010  0.81916030     0.11200
H1028       H  0.26132065  0.77275132  0.83267067     0.13100
H1029       H  0.20535527  0.73554715  0.83040409     0.09600
H1030       H  0.16299573  0.68345637  0.83162938     0.11700
H1031       H  0.22603890  0.65107280  0.83283189     0.08300
H1032       H  0.26835760  0.70312604  0.83166001     0.11100
C1033       C  0.19008747  0.53427713  0.82412123    -0.03500
C1034       C  0.21163541  0.55989624  0.81729099    -0.06100
C1035       C  0.24057443  0.56453933  0.81483604    -0.21200
C1036       C  0.24893024  0.54415499  0.81945189     0.24500
C1037       C  0.22708117  0.51788568  0.82583418    -0.18800
C1038       C  0.19784430  0.51287410  0.82805410    -0.08700
C1039       C  0.28059656  0.55096783  0.81755926    -0.19000
C1040       C  0.29590782  0.54567509  0.82668879    -0.23800
C1041       C  0.32811463  0.55368393  0.82529684     0.26600
C1042       C  0.34641712  0.56096103  0.83625208    -0.20600
C1043       C  0.37634495  0.56703082  0.83538375    -0.10200
C1044       C  0.38829708  0.56509594  0.82356557    -0.10800
C1045       C  0.37004185  0.55803351  0.81257849    -0.03700
C1046       C  0.34038280  0.55261503  0.81340569    -0.18800
H1047       H  0.20635981  0.57679947  0.81412520     0.10300
H1048       H  0.25689553  0.58476392  0.80977466     0.10400
H1049       H  0.23270446  0.50140198  0.82922564     0.10000
H1050       H  0.18182019  0.49301110  0.83338900     0.11100
H1051       H  0.29234337  0.56296321  0.80891957     0.11200
H1052       H  0.28493683  0.53659139  0.83583764     0.13100
H1053       H  0.33743798  0.56176268  0.84553556     0.09600
H1054       H  0.38974289  0.57212437  0.84401660     0.11700
H1055       H  0.37861449  0.55632865  0.80332912     0.08300
H1056       H  0.32678166  0.54652773  0.80480544     0.11100
C1057       C  0.50195475  0.86129964  0.82698611    -0.03500
C1058       C  0.53126604  0.86735842  0.82389943    -0.06100
C1059       C  0.53800464  0.84417111  0.82385736    -0.21200
C1060       C  0.51550898  0.81431908  0.82664437     0.24500
C1061       C  0.48634522  0.80830291  0.83008847    -0.18800
C1062       C  0.47967333  0.83159949  0.83027806    -0.08700
C1063       C  0.52342092  0.79019562  0.82605771    -0.19000
C1064       C  0.50314306  0.76139618  0.82284805    -0.23800
C1065       C  0.50969819  0.73621027  0.82222084     0.26600
C1066       C  0.48625291  0.70765459  0.81828360    -0.20600
C1067       C  0.48981569  0.68244014  0.81869650    -0.10200
C1068       C  0.51705456  0.68511701  0.82301002    -0.10800
C1069       C  0.54121393  0.71393102  0.82626721    -0.03700
C1070       C  0.53758772  0.73921605  0.82594509    -0.18800
H1071       H  0.54897261  0.89001518  0.82135968     0.10300
H1072       H  0.56071133  0.84945083  0.82132806     0.10400
H1073       H  0.46869750  0.78570100  0.83269820     0.10000
H1074       H  0.45688703  0.82622282  0.83270255     0.11100
H1075       H  0.54693569  0.79705723  0.82769389     0.11200
H1076       H  0.48023841  0.75581018  0.82043933     0.13100
H1077       H  0.46459468  0.70456143  0.81529977     0.09600
H1078       H  0.47070346  0.66054074  0.81616556     0.11700
H1079       H  0.56232347  0.71665977  0.82982617     0.08300
H1080       H  0.55638008  0.76058152  0.82909407     0.11100
C1081       C  0.56834340  0.39491225  0.64800832    -0.03500
C1082       C  0.58962132  0.39076134  0.64119004    -0.06100
C1083       C  0.58694348  0.36221795  0.64068533    -0.21200
C1084       C  0.56288831  0.33721335  0.64688930     0.24500
C1085       C  0.54140703  0.34130995  0.65357312    -0.18800
C1086       C  0.54406333  0.36975696  0.65407624    -0.08700
C1087       C  0.56194573  0.30776229  0.64680992    -0.19000
C1088       C  0.53659687  0.28078675  0.64888496    -0.23800
C1089       C  0.53670924  0.25190790  0.64870745     0.26600
C1090       C  0.51126716  0.22546508  0.64412534    -0.20600
C1091       C  0.51174402  0.19847372  0.64307417    -0.10200
C1092       C  0.53748562  0.19733249  0.64687930    -0.10800
C1093       C  0.56224322  0.22348210  0.65212978    -0.03700
C1094       C  0.56188665  0.25042270  0.65301779    -0.18800
H1095       H  0.60862428  0.40964533  0.63644566     0.10300
H1096       H  0.60390770  0.35971409  0.63552731     0.10400
H1097       H  0.52304608  0.32291317  0.65878655     0.10000
H1098       H  0.52739235  0.37214953  0.65952228     0.11100
H1099       H  0.58291093  0.30830395  0.64449451     0.11200
H1100       H  0.51486746  0.27946945  0.64993017     0.13100
H1101       H  0.49141103  0.22597743  0.64093331     0.09600
H1102       H  0.49226694  0.17873807  0.63903960     0.11700
H1103       H  0.58243040  0.22347642  0.65521242     0.08300
H1104       H  0.58144513  0.27011983  0.65701985     0.11100
C1105       C  0.85841674  0.50244376  0.64979695    -0.03500
C1106       C  0.83111647  0.47849449  0.64499834    -0.06100
C1107       C  0.80514979  0.48101048  0.64441115    -0.21200
C1108       C  0.80589768  0.50747023  0.64856375     0.24500
C1109       C  0.83336174  0.53148368  0.65326476    -0.18800
C1110       C  0.85922458  0.52900312  0.65381516    -0.08700
C1111       C  0.77727990  0.50839693  0.64840836    -0.19000
C1112       C  0.77560108  0.53346872  0.65057154    -0.23800
C1113       C  0.74642721  0.53319099  0.65082300     0.26600
C1114       C  0.74621519  0.55984657  0.64798212    -0.20600
C1115       C  0.71883727  0.55979231  0.64742446    -0.10200
C1116       C  0.69116960  0.53305505  0.64979987    -0.10800
C1117       C  0.69168350  0.50691991  0.65343396    -0.03700
C1118       C  0.71893501  0.50699433  0.65398882    -0.18800
H1119       H  0.82967253  0.45766124  0.64189965     0.10300
H1120       H  0.78427777  0.46204010  0.64082871     0.10400
H1121       H  0.83512656  0.55204023  0.65685762     0.10000
H1122       H  0.87983039  0.54788623  0.65762748     0.11100
H1123       H  0.75665085  0.48731566  0.64621974     0.11200
H1124       H  0.79607859  0.55527369  0.65167091     0.13100
H1125       H  0.76717947  0.58049640  0.64574387     0.09600
H1126       H  0.71924340  0.58027759  0.64457496     0.11700
H1127       H  0.67083908  0.48599265  0.65548777     0.08300
H1128       H  0.71825164  0.48639276  0.65682770     0.11100
C1129       C  0.51719028  0.54594209  0.78247692    -0.03500
C1130       C  0.49578148  0.52025854  0.77568963    -0.06100
C1131       C  0.50301391  0.51320601  0.76381664    -0.21200
C1132       C  0.53170127  0.53168244  0.75835418     0.24500
C1133       C  0.55352071  0.55701209  0.76524721    -0.18800
C1134       C  0.54629125  0.56406662  0.77719889    -0.08700
C1135       C  0.53776288  0.52317946  0.74558658    -0.19000
C1136       C  0.55925403  0.54262841  0.73743946    -0.23800
C1137       C  0.56290457  0.53342031  0.72438461     0.26600
C1138       C  0.57418975  0.55498631  0.71453167    -0.20600
C1139       C  0.57661556  0.54664848  0.70202906    -0.10200
C1140       C  0.56809444  0.51655864  0.69915993    -0.10800
C1141       C  0.55761685  0.49520517  0.70913120    -0.03700
C1142       C  0.55518656  0.50353417  0.72158833    -0.18800
H1143       H  0.47317133  0.50573853  0.77945646     0.10300
H1144       H  0.48587567  0.49343102  0.75877090     0.10400
H1145       H  0.57617894  0.57129251  0.76152128     0.10000
H1146       H  0.56336154  0.58389582  0.78222717     0.11100
H1147       H  0.52224159  0.50020763  0.74243233     0.11200
H1148       H  0.57300073  0.56636293  0.73995769     0.13100
H1149       H  0.58058097  0.57822373  0.71646414     0.09600
H1150       H  0.58498945  0.56373888  0.69461103     0.11700
H1151       H  0.55121696  0.47192300  0.70733282     0.08300
H1152       H  0.54747719  0.48650658  0.72900627     0.11100
C1153       C  0.34298887  0.13621690  0.81921610    -0.03500
C1154       C  0.37450155  0.15425705  0.82083917    -0.06100
C1155       C  0.39331457  0.14213842  0.81851777    -0.21200
C1156       C  0.38102065  0.11203689  0.81434362     0.24500
C1157       C  0.34962252  0.09484710  0.81195875    -0.18800
C1158       C  0.33099358  0.10682352  0.81434232    -0.08700
C1159       C  0.40038562  0.09789244  0.81415382    -0.19000
C1160       C  0.39261744  0.07217456  0.80769810    -0.23800
C1161       C  0.40623508  0.05289972  0.80989505     0.26600
C1162       C  0.38760661  0.02168825  0.80794012    -0.20600
C1163       C  0.39798894  0.00192093  0.81066556    -0.10200
C1164       C  0.42760646  0.01281599  0.81516130    -0.10800
C1165       C  0.44697177  0.04420476  0.81657946    -0.03700
C1166       C  0.43627112  0.06414413  0.81408750    -0.18800
H1167       H  0.38427388  0.17684911  0.82475266     0.10300
H1168       H  0.41733849  0.15585785  0.82052451     0.10400
H1169       H  0.33874465  0.07138495  0.80911396     0.10000
H1170       H  0.30673271  0.09236001  0.81307169     0.11100
H1171       H  0.42013974  0.10764209  0.82033433     0.11200
H1172       H  0.37319234  0.06287575  0.80135441     0.13100
H1173       H  0.36445105  0.01237223  0.80468687     0.09600
H1174       H  0.38256972  0.97786732  0.80941555     0.11700
H1175       H  0.46987364  0.05315856  0.82007033     0.08300
H1176       H  0.45141489  0.08815821  0.81547566     0.11100
C1177       C  0.36029732  0.28367024  0.82532376    -0.03500
C1178       C  0.39029896  0.29134070  0.82813263    -0.06100
C1179       C  0.41297530  0.32175280  0.83011641    -0.21200
C1180       C  0.40590594  0.34488800  0.82962832     0.24500
C1181       C  0.37597165  0.33706606  0.82676791    -0.18800
C1182       C  0.35359656  0.30701584  0.82465053    -0.08700
C1183       C  0.42986591  0.37734039  0.83126532    -0.19000
C1184       C  0.42347306  0.39721892  0.83684722    -0.23800
C1185       C  0.44238426  0.43096195  0.83622952     0.26600
C1186       C  0.43004795  0.44753447  0.84154282    -0.20600
C1187       C  0.44292260  0.47839454  0.83905008    -0.10200
C1188       C  0.46885975  0.49373660  0.83134006    -0.10800
C1189       C  0.48305546  0.47801720  0.82700831    -0.03700
C1190       C  0.46984359  0.44680725  0.82934854    -0.18800
H1191       H  0.39629906  0.27394566  0.82862815     0.10300
H1192       H  0.43596954  0.32720082  0.83210348     0.10400
H1193       H  0.36986789  0.35431538  0.82583774     0.10000
H1194       H  0.33089876  0.30213378  0.82241341     0.11100
H1195       H  0.45218046  0.38478019  0.82734064     0.11200
H1196       H  0.40141528  0.38810523  0.84139169     0.13100
H1197       H  0.40909582  0.43616751  0.84695676     0.09600
H1198       H  0.43146456  0.48990357  0.84249655     0.11700
H1199       H  0.50288190  0.48923588  0.82090887     0.08300
H1200       H  0.48030220  0.43510265  0.82513515     0.11100
C1201       C  0.32525669  0.18446518  0.86772345    -0.03500
C1202       C  0.31066046  0.16598492  0.87837742    -0.06100
C1203       C  0.32244827  0.17517413  0.89063014    -0.21200
C1204       C  0.34945785  0.20263550  0.89249202     0.24500
C1205       C  0.36438288  0.22118038  0.88188930    -0.18800
C1206       C  0.35220756  0.21226658  0.86959359    -0.08700
C1207       C  0.36122467  0.21125477  0.90564710    -0.19000
C1208       C  0.39085490  0.22421295  0.90835887    -0.23800
C1209       C  0.40192026  0.22843326  0.92168326     0.26600
C1210       C  0.42564696  0.22333913  0.92457192    -0.20600
C1211       C  0.43582646  0.22584508  0.93712859    -0.10200
C1212       C  0.42288357  0.23414815  0.94704019    -0.10800
C1213       C  0.39954075  0.23998235  0.94408207    -0.03700
C1214       C  0.38902178  0.23698366  0.93151625    -0.18800
H1215       H  0.28973113  0.14456363  0.87728928     0.10300
H1216       H  0.31061160  0.16059800  0.89868133     0.10400
H1217       H  0.38508738  0.24272625  0.88313605     0.10000
H1218       H  0.36388080  0.22701386  0.86157215     0.11100
H1219       H  0.34483641  0.20365657  0.91341316     0.11200
H1220       H  0.40693705  0.22867004  0.90068317     0.13100
H1221       H  0.43591035  0.21677948  0.91712592     0.09600
H1222       H  0.45399917  0.22141856  0.93904898     0.11700
H1223       H  0.38921484  0.24656993  0.95148443     0.08300
H1224       H  0.37100791  0.24157159  0.92947807     0.11100
C1225       C  0.02858033  0.43855079  0.81871091    -0.03500
C1226       C  0.99795239  0.42982337  0.82034697    -0.06100
C1227       C  0.97506362  0.39964519  0.81840691    -0.21200
C1228       C  0.98231189  0.37787476  0.81447033     0.24500
C1229       C  0.01296048  0.38706020  0.81231259    -0.18800
C1230       C  0.03576467  0.41697185  0.81447364    -0.08700
C1231       C  0.95834790  0.34526318  0.81439899    -0.19000
C1232       C  0.96050586  0.32453614  0.80726018    -0.23800
C1233       C  0.94313205  0.29131981  0.80977035     0.26600
C1234       C  0.95521326  0.27406408  0.80500981    -0.20600
C1235       C  0.94366720  0.24423135  0.80897182    -0.10200
C1236       C  0.91926859  0.23062818  0.81758347    -0.10800
C1237       C  0.90530936  0.24680436  0.82151323    -0.03700
C1238       C  0.91718581  0.27699447  0.81767459    -0.18800
H1239       H  0.99181894  0.44597371  0.82370866     0.10300
H1240       H  0.95170777  0.39310013  0.82031093     0.10400
H1241       H  0.01967394  0.37091279  0.80966976     0.10000
H1242       H  0.05918830  0.42307194  0.81313564     0.11100
H1243       H  0.94007257  0.33821502  0.82125149     0.11200
H1244       H  0.97849685  0.33246302  0.80017825     0.13100
H1245       H  0.97497083  0.28427651  0.79883695     0.09600
H1246       H  0.95481484  0.23220365  0.80579357     0.11700
H1247       H  0.88658812  0.23683634  0.82822566     0.08300
H1248       H  0.90661961  0.28914795  0.82130125     0.11100
C1249       C  0.00162760  0.16367653  0.81992977    -0.03500
C1250       C  0.00731469  0.14872330  0.80998495    -0.06100
C1251       C  0.03659508  0.15338914  0.80811465    -0.21200
C1252       C  0.06061380  0.17272687  0.81623342     0.24500
C1253       C  0.05500474  0.18809871  0.82597351    -0.18800
C1254       C  0.02599596  0.18363339  0.82779214    -0.08700
C1255       C  0.09151369  0.17726407  0.81426287    -0.19000
C1256       C  0.11076222  0.18264885  0.82406546    -0.23800
C1257       C  0.14165523  0.18708381  0.82248368     0.26600
C1258       C  0.15327010  0.17674620  0.83211221    -0.20600
C1259       C  0.18204640  0.18005408  0.83088681    -0.10200
C1260       C  0.20032500  0.19475302  0.82019746    -0.10800
C1261       C  0.18921417  0.20625341  0.81079784    -0.03700
C1262       C  0.16006038  0.20223976  0.81186783    -0.18800
H1263       H  0.98918118  0.13338431  0.80369369     0.10300
H1264       H  0.04040795  0.14153297  0.80043439     0.10400
H1265       H  0.07313265  0.20397212  0.83212471     0.10000
H1266       H  0.02275350  0.19599275  0.83542193     0.11100
H1267       H  0.09797770  0.17469819  0.80465247     0.11200
H1268       H  0.10296111  0.18198764  0.83379054     0.13100
H1269       H  0.13964288  0.16525331  0.84044080     0.09600
H1270       H  0.18982438  0.17063081  0.83819522     0.11700
H1271       H  0.20252638  0.21712726  0.80232411     0.08300
H1272       H  0.15198167  0.21102561  0.80441677     0.11100
C1273       C  0.56395146  0.00871821  0.82121085    -0.03500
C1274       C  0.57075881  0.01591354  0.83420121    -0.06100
C1275       C  0.60109257  0.03283298  0.83825856    -0.21200
C1276       C  0.62498829  0.04362817  0.82935779     0.24500
C1277       C  0.61796507  0.03789590  0.81629666    -0.18800
C1278       C  0.58783869  0.02037724  0.81230003    -0.08700
C1279       C  0.65689848  0.05705281  0.83379416    -0.19000
C1280       C  0.68053239  0.07910220  0.82727022    -0.23800
C1281       C  0.71261335  0.08771343  0.82958425     0.26600
C1282       C  0.73598532  0.11745810  0.82707675    -0.20600
C1283       C  0.76641572  0.12489379  0.82705407    -0.10200
C1284       C  0.77393899  0.10243551  0.82910328    -0.10800
C1285       C  0.75063661  0.07291471  0.83206199    -0.03700
C1286       C  0.72032783  0.06568411  0.83243726    -0.18800
H1287       H  0.55280050  0.00668701  0.84127776     0.10300
H1288       H  0.60595260  0.03665029  0.84838753     0.10400
H1289       H  0.63581738  0.04522705  0.80922480     0.10000
H1290       H  0.58322158  0.01477781  0.80225109     0.11100
H1291       H  0.66107135  0.04749979  0.84227824     0.11200
H1292       H  0.67616814  0.09040459  0.81948976     0.13100
H1293       H  0.73059770  0.13475378  0.82472881     0.09600
H1294       H  0.78388554  0.14778018  0.82468450     0.11700
H1295       H  0.75578693  0.05516172  0.83369927     0.08300
H1296       H  0.70284513  0.04242677  0.83415292     0.11100
C1297       C  0.84614296  0.23249302  0.94997636    -0.03500
C1298       C  0.85814724  0.25626925  0.94102542    -0.06100
C1299       C  0.86427430  0.25151600  0.92849778    -0.21200
C1300       C  0.85824325  0.22287423  0.92457037     0.24500
C1301       C  0.84645029  0.19906432  0.93350217    -0.18800
C1302       C  0.84039972  0.20382367  0.94606875    -0.08700
C1303       C  0.86588380  0.21900032  0.91128914    -0.19000
C1304       C  0.85093961  0.19260505  0.90491776    -0.23800
C1305       C  0.85942069  0.18826682  0.89183446     0.26600
C1306       C  0.83758467  0.16479548  0.88421205    -0.20600
C1307       C  0.84533396  0.15875896  0.87219081    -0.10200
C1308       C  0.87524202  0.17595706  0.86758950    -0.10800
C1309       C  0.89697654  0.19972173  0.87515627    -0.03700
C1310       C  0.88921872  0.20576337  0.88715019    -0.18800
H1311       H  0.86293491  0.27866275  0.94369656     0.10300
H1312       H  0.87364162  0.27026848  0.92182375     0.10400
H1313       H  0.84251342  0.17694154  0.93089825     0.10000
H1314       H  0.83163031  0.18514604  0.95276428     0.11100
H1315       H  0.88358093  0.23894392  0.90648054     0.11200
H1316       H  0.83126337  0.17355793  0.90930954     0.13100
H1317       H  0.81451870  0.15088950  0.88762666     0.09600
H1318       H  0.82800662  0.14028556  0.86660648     0.11700
H1319       H  0.92024514  0.21327875  0.87194673     0.08300
H1320       H  0.90692925  0.22346699  0.89287164     0.11100
C1321       C  0.54702361  0.23689120  0.99727477    -0.03500
C1322       C  0.57432504  0.25981933  0.00254655    -0.06100
C1323       C  0.60018635  0.25708129  0.00253624    -0.21200
C1324       C  0.59939587  0.23149488  0.99722236     0.24500
C1325       C  0.57165396  0.20798648  0.99247536    -0.18800
C1326       C  0.54588929  0.21072449  0.99248710    -0.08700
C1327       C  0.62799907  0.23054067  0.99677594    -0.19000
C1328       C  0.63159438  0.20975153  0.99031686    -0.23800
C1329       C  0.66065426  0.20989374  0.99032592     0.26600
C1330       C  0.66031360  0.18235985  0.98988521    -0.20600
C1331       C  0.68725186  0.18179467  0.99128145    -0.10200
C1332       C  0.71500908  0.20887541  0.99294756    -0.10800
C1333       C  0.71546568  0.23651026  0.99227917    -0.03700
C1334       C  0.68864020  0.23702506  0.99099290    -0.18800
H1335       H  0.57592378  0.28018034  0.00639067     0.10300
H1336       H  0.62110145  0.27538511  0.00643392     0.10400
H1337       H  0.56943927  0.18742297  0.98865177     0.10000
H1338       H  0.52513187  0.19243791  0.98848283     0.11100
H1339       H  0.64716011  0.24808181  0.00204198     0.11200
H1340       H  0.61278368  0.19132459  0.98531129     0.13100
H1341       H  0.63900771  0.16117680  0.98911169     0.09600
H1342       H  0.68611986  0.16016377  0.99171687     0.11700
H1343       H  0.73648454  0.25787582  0.99332424     0.08300
H1344       H  0.68985479  0.25870028  0.99076343     0.11100
C1345       C  0.82123160  0.70759271  0.81795609    -0.03500
C1346       C  0.80524511  0.71404023  0.80882922    -0.06100
C1347       C  0.77445457  0.69370726  0.80665840    -0.21200
C1348       C  0.75886967  0.66715094  0.81392888     0.24500
C1349       C  0.77526881  0.65978350  0.82253227    -0.18800
C1350       C  0.80635380  0.67980729  0.82444880    -0.08700
C1351       C  0.72522501  0.64961470  0.81335712    -0.19000
C1352       C  0.70845808  0.64126237  0.82412406    -0.23800
C1353       C  0.67588039  0.63215974  0.82436153     0.26600
C1354       C  0.66534413  0.64167777  0.83470351    -0.20600
C1355       C  0.63551366  0.63561911  0.83499449    -0.10200
C1356       C  0.61517323  0.61907178  0.82513204    -0.10800
C1357       C  0.62519577  0.60831968  0.81500281    -0.03700
C1358       C  0.65548446  0.61514536  0.81453092    -0.18800
H1359       H  0.81622106  0.73559037  0.80389149     0.10300
H1360       H  0.76228080  0.69984593  0.79999723     0.10400
H1361       H  0.76378422  0.63924957  0.82816153     0.10000
H1362       H  0.81818082  0.67469440  0.83170392     0.11100
H1363       H  0.71445904  0.64853399  0.80427026     0.11200
H1364       H  0.71999755  0.64570335  0.83328117     0.13100
H1365       H  0.68054271  0.65471055  0.84240838     0.09600
H1366       H  0.62829560  0.64395722  0.84296626     0.11700
H1367       H  0.60991439  0.59551053  0.80729175     0.08300
H1368       H  0.66290448  0.60713303  0.80652513     0.11100
C1369       C  0.89082386  0.86548902  0.82012633    -0.03500
C1370       C  0.86093220  0.85986417  0.82061286    -0.06100
C1371       C  0.85516013  0.88369190  0.82032610    -0.21200
C1372       C  0.87907304  0.91377703  0.81981964     0.24500
C1373       C  0.90904322  0.91953893  0.81907028    -0.18800
C1374       C  0.91482964  0.89558116  0.81916474    -0.08700
C1375       C  0.87164847  0.93829678  0.81967911    -0.19000
C1376       C  0.89011307  0.96616519  0.82448572    -0.23800
C1377       C  0.88342854  0.99132412  0.82428113     0.26600
C1378       C  0.90697081  0.02058797  0.82732928    -0.20600
C1379       C  0.90282950  0.04540776  0.82633093    -0.10200
C1380       C  0.87486008  0.04159912  0.82235012    -0.10800
C1381       C  0.85071509  0.01217445  0.81999952    -0.03700
C1382       C  0.85488906  0.98729175  0.82095240    -0.18800
H1383       H  0.84188620  0.83694778  0.82124722     0.10300
H1384       H  0.83188037  0.87860717  0.82073595     0.10400
H1385       H  0.92800113  0.94243100  0.81825927     0.10000
H1386       H  0.93808266  0.90062167  0.81872455     0.11100
H1387       H  0.84976001  0.93248351  0.81578190     0.11200
H1388       H  0.91160901  0.97111717  0.82861760     0.13100
H1389       H  0.92904797  0.02445292  0.83010428     0.09600
H1390       H  0.92190015  0.06775243  0.82830580     0.11700
H1391       H  0.82888907  0.00846126  0.81692105     0.08300
H1392       H  0.83570781  0.96520494  0.81888916     0.11100
C1393       C  0.18691674  0.06027935  0.82267744    -0.03500
C1394       C  0.15896847  0.05688473  0.81902557    -0.06100
C1395       C  0.13276881  0.02825561  0.81885387    -0.21200
C1396       C  0.13387589  0.00234386  0.82224172     0.24500
C1397       C  0.16183895  0.00577004  0.82600665    -0.18800
C1398       C  0.18802439  0.03439144  0.82618862    -0.08700
C1399       C  0.10520767  0.97250181  0.82211804    -0.19000
C1400       C  0.10397715  0.94561065  0.82195721    -0.23800
C1401       C  0.07496727  0.91615395  0.82144498     0.26600
C1402       C  0.07482524  0.89098721  0.81610125    -0.20600
C1403       C  0.04763874  0.86347112  0.81465881    -0.10200
C1404       C  0.01999454  0.86045871  0.81866407    -0.10800
C1405       C  0.02042586  0.88515808  0.82471849    -0.03700
C1406       C  0.04757848  0.91265831  0.82612111    -0.18800
H1407       H  0.15726167  0.07637824  0.81640229     0.10300
H1408       H  0.11150304  0.02635016  0.81604596     0.10400
H1409       H  0.16365204  0.98664834  0.82908358     0.10000
H1410       H  0.20912878  0.03623490  0.82921039     0.11100
H1411       H  0.08425610  0.97291264  0.82153505     0.11200
H1412       H  0.12476568  0.94492939  0.82132506     0.13100
H1413       H  0.09567992  0.89291058  0.81262312     0.09600
H1414       H  0.04818482  0.84488301  0.81002083     0.11700
H1415       H  0.99961671  0.88361355  0.82801390     0.08300
H1416       H  0.04690780  0.93111733  0.83079211     0.11100
C1417       C  0.03714289  0.57782917  0.82814735    -0.03500
C1418       C  0.00940000  0.56433921  0.82157078    -0.06100
C1419       C  0.99003775  0.57617336  0.82270469    -0.21200
C1420       C  0.99831456  0.60180348  0.83032705     0.24500
C1421       C  0.02478149  0.61337368  0.83779520    -0.18800
C1422       C  0.04415585  0.60177835  0.83656699    -0.08700
C1423       C  0.98094136  0.61794464  0.82941475    -0.19000
C1424       C  0.99542355  0.64844030  0.82975014    -0.23800
C1425       C  0.98154632  0.66727997  0.82703946     0.26600
C1426       C  0.00085117  0.69673689  0.82256071    -0.20600
C1427       C  0.98998401  0.71622554  0.82016585    -0.10200
C1428       C  0.95939372  0.70709438  0.82234104    -0.10800
C1429       C  0.93980481  0.67753906  0.82690428    -0.03700
C1430       C  0.95075741  0.65768461  0.82917916    -0.18800
H1431       H  0.00387699  0.54628445  0.81480033     0.10300
H1432       H  0.96970078  0.56667570  0.81692013     0.10400
H1433       H  0.03135425  0.63240636  0.84412638     0.10000
H1434       H  0.06559019  0.61272173  0.84162355     0.11100
H1435       H  0.95704118  0.60508576  0.82695687     0.11200
H1436       H  0.01989505  0.66080687  0.83093762     0.13100
H1437       H  0.02464788  0.70479904  0.82085058     0.09600
H1438       H  0.00585380  0.73872703  0.81668007     0.11700
H1439       H  0.91613670  0.66981983  0.82871344     0.08300
H1440       H  0.93536218  0.63524058  0.83283297     0.11100
C1441       C  0.73461900  0.53125016  0.99870198    -0.03500
C1442       C  0.73069625  0.50533280  0.00501123    -0.06100
C1443       C  0.70218821  0.47902755  0.00547145    -0.21200
C1444       C  0.67694651  0.47804454  0.99971493     0.24500
C1445       C  0.68070374  0.50420756  0.99364668    -0.18800
C1446       C  0.70920817  0.53053592  0.99320247    -0.08700
C1447       C  0.64768368  0.44887093  0.99959408    -0.19000
C1448       C  0.62054938  0.44651748  0.99768114    -0.23800
C1449       C  0.59172446  0.41700119  0.99768079     0.26600
C1450       C  0.56500007  0.41580581  0.00171844    -0.20600
C1451       C  0.53777196  0.38813453  0.00248005    -0.10200
C1452       C  0.53666728  0.36110711  0.99903601    -0.10800
C1453       C  0.56316586  0.36255040  0.99436918    -0.03700
C1454       C  0.59039178  0.39018190  0.99368916    -0.18800
H1455       H  0.74978644  0.50512842  0.00935449     0.10300
H1456       H  0.69993899  0.45919148  0.01018556     0.10400
H1457       H  0.66206364  0.50424230  0.98881551     0.10000
H1458       H  0.71149158  0.55005014  0.98818828     0.11100
H1459       H  0.64855124  0.42856886  0.00161722     0.11200
H1460       H  0.61900504  0.46676928  0.99690791     0.13100
H1461       H  0.56539269  0.43623780  0.00467018     0.09600
H1462       H  0.51778187  0.38785605  0.00607199     0.11700
H1463       H  0.56312184  0.34221361  0.99155548     0.08300
H1464       H  0.61033134  0.39042762  0.99006999     0.11100
C1465       C  0.86872299  0.54037542  0.99744696    -0.03500
C1466       C  0.89489283  0.53892102  0.00004732    -0.06100
C1467       C  0.89383078  0.51112555  0.00000341    -0.21200
C1468       C  0.86658778  0.48410358  0.99749777     0.24500
C1469       C  0.84084927  0.48569329  0.99411401    -0.18800
C1470       C  0.84192252  0.51350164  0.99409406    -0.08700
C1471       C  0.86608287  0.45488810  0.99841364    -0.19000
C1472       C  0.84083986  0.42807858  0.00095245    -0.23800
C1473       C  0.84043428  0.39884713  0.00193534     0.26600
C1474       C  0.81589168  0.37406122  0.00805044    -0.20600
C1475       C  0.81391272  0.34578339  0.00851182    -0.10200
C1476       C  0.83649197  0.34168896  0.00284122    -0.10800
C1477       C  0.86126379  0.36662108  0.99692438    -0.03700
C1478       C  0.86313822  0.39472047  0.99639213    -0.18800
H1479       H  0.91592128  0.55908157  0.00265456     0.10300
H1480       H  0.91414526  0.51062042  0.00241067     0.10400
H1481       H  0.81976443  0.46553049  0.99160508     0.10000
H1482       H  0.82134936  0.51372404  0.99193700     0.11100
H1483       H  0.88779692  0.45607298  0.99774287     0.11200
H1484       H  0.81967980  0.42749084  0.00281143     0.13100
H1485       H  0.79797174  0.37648270  0.01234816     0.09600
H1486       H  0.79443893  0.32701994  0.01307960     0.11700
H1487       H  0.87886151  0.36422290  0.99229132     0.08300
H1488       H  0.88194935  0.41272832  0.99122947     0.11100
C1489       C  0.88783031  0.73149718  0.86489276    -0.03500
C1490       C  0.89100415  0.70599555  0.86620629    -0.06100
C1491       C  0.88680993  0.69205760  0.87811422    -0.21200
C1492       C  0.88011324  0.70379379  0.88892328     0.24500
C1493       C  0.87700478  0.72933907  0.88760460    -0.18800
C1494       C  0.88076648  0.74299249  0.87569925    -0.08700
C1495       C  0.87491512  0.68813554  0.90133067    -0.19000
C1496       C  0.88093915  0.70284552  0.91255169    -0.23800
C1497       C  0.87377055  0.68711125  0.92500586     0.26600
C1498       C  0.89110489  0.70265422  0.93573554    -0.20600
C1499       C  0.88371845  0.68905890  0.94778440    -0.10200
C1500       C  0.85836366  0.65995309  0.94932730    -0.10800
C1501       C  0.84111749  0.64430540  0.93857207    -0.03700
C1502       C  0.84878507  0.65770427  0.92650538    -0.18800
H1503       H  0.89624833  0.69656120  0.85800279     0.10300
H1504       H  0.88894467  0.67217269  0.87890979     0.10400
H1505       H  0.87095419  0.73841018  0.89568069     0.10000
H1506       H  0.87822496  0.76264247  0.87496300     0.11100
H1507       H  0.86669225  0.66402196  0.90118374     0.11200
H1508       H  0.89214387  0.72737362  0.91266625     0.13100
H1509       H  0.91026473  0.72544306  0.93479707     0.09600
H1510       H  0.89724017  0.70167903  0.95595095     0.11700
H1511       H  0.82147543  0.62181803  0.93951510     0.08300
H1512       H  0.83447741  0.64541374  0.91847562     0.11100
C1513       C  0.82193808  0.96489520  0.70839358    -0.03500
C1514       C  0.80211080  0.96161838  0.71832191    -0.06100
C1515       C  0.81332641  0.97734645  0.72977880    -0.21200
C1516       C  0.84457305  0.99736276  0.73145571     0.24500
C1517       C  0.86466449  0.99897947  0.72183201    -0.18800
C1518       C  0.85334705  0.98272092  0.71039017    -0.08700
C1519       C  0.85411972  0.01790218  0.74274672    -0.19000
C1520       C  0.88203537  0.04199480  0.74481664    -0.23800
C1521       C  0.88675146  0.06381260  0.75516511     0.26600
C1522       C  0.91117945  0.07397362  0.76371461    -0.20600
C1523       C  0.91269610  0.09085787  0.77457566    -0.10200
C1524       C  0.88993470  0.09794054  0.77686206    -0.10800
C1525       C  0.86728433  0.09022671  0.76762296    -0.03700
C1526       C  0.86574184  0.07342981  0.75688742    -0.18800
H1527       H  0.77779889  0.94826840  0.71691208     0.10300
H1528       H  0.79727727  0.97537685  0.73703001     0.10400
H1529       H  0.88889188  0.01373306  0.72277423     0.10000
H1530       H  0.86899421  0.98593292  0.70273554     0.11100
H1531       H  0.83621103  0.01430702  0.74939007     0.11200
H1532       H  0.90129831  0.04611190  0.73899961     0.13100
H1533       H  0.92786696  0.06715834  0.76245101     0.09600
H1534       H  0.93016539  0.09624197  0.78164642     0.11700
H1535       H  0.84956691  0.09555991  0.76913374     0.08300
H1536       H  0.84727462  0.06678375  0.75019620     0.11100
C1537       C  0.70481899  0.82406319  0.66128539    -0.03500
C1538       C  0.67862219  0.81323250  0.65379176    -0.06100
C1539       C  0.65651073  0.78239334  0.65394277    -0.21200
C1540       C  0.66000025  0.76201954  0.66173379     0.24500
C1541       C  0.68498889  0.77358693  0.67009311    -0.18800
C1542       C  0.70726594  0.80425201  0.66976916    -0.08700
C1543       C  0.64076371  0.72892883  0.65922918    -0.19000
C1544       C  0.63839196  0.70730312  0.66729107    -0.23800
C1545       C  0.62714888  0.67555285  0.66317690     0.26600
C1546       C  0.61491296  0.65211632  0.67227128    -0.20600
C1547       C  0.60792731  0.62276274  0.66894033    -0.10200
C1548       C  0.61401208  0.61661949  0.65655042    -0.10800
C1549       C  0.62582097  0.63990558  0.64742136    -0.03700
C1550       C  0.63206308  0.66895646  0.65064344    -0.18800
H1551       H  0.67662062  0.82800258  0.64696696     0.10300
H1552       H  0.63766179  0.77411933  0.64733777     0.10400
H1553       H  0.68896843  0.75876857  0.67606990     0.10000
H1554       H  0.72757649  0.81209857  0.67546541     0.11100
H1555       H  0.63005667  0.72226169  0.64989740     0.11200
H1556       H  0.64641752  0.71318474  0.67705721     0.13100
H1557       H  0.61138500  0.65670185  0.68203777     0.09600
H1558       H  0.59914717  0.60525053  0.67618584     0.11700
H1559       H  0.63079716  0.63573760  0.63781744     0.08300
H1560       H  0.64227881  0.68654644  0.64346915     0.11100
C1561       C  0.70774340  0.95934492  0.65245029    -0.03500
C1562       C  0.67722183  0.93673100  0.65062540    -0.06100
C1563       C  0.65462390  0.94443785  0.64922377    -0.21200
C1564       C  0.66213928  0.97488311  0.64932259     0.24500
C1565       C  0.69280595  0.99742605  0.65079098    -0.18800
C1566       C  0.71520221  0.98976364  0.65232324    -0.08700
C1567       C  0.63782161  0.98289540  0.64893245    -0.19000
C1568       C  0.64284376  0.00922461  0.64383691    -0.23800
C1569       C  0.62285055  0.02251085  0.64511539     0.26600
C1570       C  0.63284356  0.05064302  0.63925096    -0.20600
C1571       C  0.61901096  0.06744974  0.64192117    -0.10200
C1572       C  0.59442654  0.05645879  0.65039236    -0.10800
C1573       C  0.58256844  0.02727655  0.65552695    -0.03700
C1574       C  0.59674654  0.01038838  0.65295498    -0.18800
H1575       H  0.67066654  0.91307644  0.65074940     0.10300
H1576       H  0.63118900  0.92658710  0.64822060     0.10400
H1577       H  0.69952448  0.02108228  0.65131833     0.10000
H1578       H  0.73840619  0.00780049  0.65374064     0.11100
H1579       H  0.61604210  0.96721591  0.65318308     0.11200
H1580       H  0.66416144  0.02308561  0.63883771     0.13100
H1581       H  0.65271035  0.06061800  0.63314252     0.09600
H1582       H  0.62870284  0.08998515  0.63793151     0.11700
H1583       H  0.56389330  0.01855282  0.66225750     0.08300
H1584       H  0.58821718  0.98883270  0.65768250     0.11100
C1585       C  0.67192036  0.86569682  0.53112463    -0.03500
C1586       C  0.68813855  0.89621778  0.53491061    -0.06100
C1587       C  0.70052715  0.90412369  0.54721420    -0.21200
C1588       C  0.69720178  0.88175541  0.55588511     0.24500
C1589       C  0.68066907  0.85125628  0.55213690    -0.18800
C1590       C  0.66836736  0.84337417  0.53990592    -0.08700
C1591       C  0.71019443  0.89054328  0.56891984    -0.19000
C1592       C  0.71892986  0.87391256  0.57565318    -0.23800
C1593       C  0.73068704  0.88089808  0.58891798     0.26600
C1594       C  0.74747780  0.86813918  0.59346085    -0.20600
C1595       C  0.75754904  0.87254087  0.60609968    -0.10200
C1596       C  0.75077137  0.88961284  0.61454929    -0.10800
C1597       C  0.73405757  0.90254841  0.60998481    -0.03700
C1598       C  0.72405591  0.89820599  0.59730911    -0.18800
H1599       H  0.69111395  0.91395152  0.52841176     0.10300
H1600       H  0.71288089  0.92775671  0.54994649     0.10400
H1601       H  0.67657521  0.83328221  0.55870774     0.10000
H1602       H  0.65563379  0.81960562  0.53741965     0.11100
H1603       H  0.71356408  0.91164988  0.57279708     0.11200
H1604       H  0.71825618  0.85452526  0.57113408     0.13100
H1605       H  0.75267487  0.85451585  0.58721646     0.09600
H1606       H  0.77032625  0.86220655  0.60927538     0.11700
H1607       H  0.72832856  0.91572578  0.61624817     0.08300
H1608       H  0.71045184  0.90770842  0.59427435     0.11100
C1609       C  0.09787268  0.90782018  0.70877663    -0.03500
C1610       C  0.08071853  0.92201981  0.70726121    -0.06100
C1611       C  0.06030470  0.91952790  0.71677711    -0.21200
C1612       C  0.05759822  0.90384932  0.72813766     0.24500
C1613       C  0.07692911  0.89225767  0.73016965    -0.18800
C1614       C  0.09662869  0.89390718  0.72050662    -0.08700
C1615       C  0.03137044  0.89507604  0.73672486    -0.19000
C1616       C  0.03362035  0.89416024  0.74947720    -0.23800
C1617       C  0.00682216  0.87745174  0.75788385     0.26600
C1618       C  0.00705972  0.88872918  0.77011490    -0.20600
C1619       C  0.98556349  0.87037551  0.77925042    -0.10200
C1620       C  0.96426046  0.84004036  0.77644820    -0.10800
C1621       C  0.96289837  0.82925003  0.76398488    -0.03700
C1622       C  0.98371331  0.84799307  0.75469521    -0.18800
H1623       H  0.08084581  0.93244693  0.69823642     0.10300
H1624       H  0.04546788  0.92842839  0.71498860     0.10400
H1625       H  0.07493333  0.87960297  0.73876532     0.10000
H1626       H  0.10933684  0.88249944  0.72186305     0.11100
H1627       H  0.00930383  0.88714072  0.73238935     0.11200
H1628       H  0.05591472  0.90425673  0.75386059     0.13100
H1629       H  0.02491865  0.91118447  0.77281695     0.09600
H1630       H  0.98762836  0.87893943  0.78889775     0.11700
H1631       H  0.94713614  0.80575709  0.76170400     0.08300
H1632       H  0.98343691  0.83854741  0.74539816     0.11100
C1633       C  0.23983854  0.92489787  0.66763824    -0.03500
C1634       C  0.25241426  0.90928125  0.66161685    -0.06100
C1635       C  0.28373099  0.92027394  0.66235809    -0.21200
C1636       C  0.30290386  0.94695815  0.66914932     0.24500
C1637       C  0.28957739  0.96034783  0.67639028    -0.18800
C1638       C  0.25849246  0.94967389  0.67549525    -0.08700
C1639       C  0.33656472  0.96197448  0.66752491    -0.19000
C1640       C  0.35433887  0.99239723  0.66767881    -0.23800
C1641       C  0.38690298  0.00993224  0.66386468     0.26600
C1642       C  0.39799566  0.03954567  0.65951626    -0.20600
C1643       C  0.42816430  0.05769593  0.65586778    -0.10200
C1644       C  0.44859401  0.04707522  0.65662475    -0.10800
C1645       C  0.43780922  0.01745597  0.66114186    -0.03700
C1646       C  0.40708306  0.99888941  0.66465636    -0.18800
H1647       H  0.23859340  0.89028106  0.65540163     0.10300
H1648       H  0.29325642  0.90920258  0.65684673     0.10400
H1649       H  0.30330564  0.98004123  0.68225789     0.10000
H1650       H  0.24931522  0.96196429  0.68032544     0.11100
H1651       H  0.34612292  0.94825852  0.66458798     0.11200
H1652       H  0.34372359  0.00576562  0.66944152     0.13100
H1653       H  0.38311209  0.04874862  0.65883296     0.09600
H1654       H  0.43551724  0.08037947  0.65253562     0.11700
H1655       H  0.45299683  0.00864116  0.66186873     0.08300
H1656       H  0.39936336  0.97628162  0.66816016     0.11100
C1657       C  0.09993159  0.78547865  0.65803970    -0.03500
C1658       C  0.06860939  0.76451826  0.65819923    -0.06100
C1659       C  0.05736689  0.73458297  0.65453647    -0.21200
C1660       C  0.07702049  0.72445708  0.65080617     0.24500
C1661       C  0.10844556  0.74528869  0.65051986    -0.18800
C1662       C  0.11978563  0.77563653  0.65404415    -0.08700
C1663       C  0.06319624  0.69205553  0.64724182    -0.19000
C1664       C  0.07698763  0.67567078  0.64826402    -0.23800
C1665       C  0.05945061  0.64204519  0.64706245     0.26600
C1666       C  0.06724511  0.62447958  0.65470330    -0.20600
C1667       C  0.04742457  0.59316251  0.65584418    -0.10200
C1668       C  0.01955640  0.57910727  0.64936263    -0.10800
C1669       C  0.01327395  0.59613860  0.64074007    -0.03700
C1670       C  0.03321751  0.62719327  0.63943977    -0.18800
H1671       H  0.05257751  0.77124253  0.66112169     0.10300
H1672       H  0.03307282  0.71910121  0.65479437     0.10400
H1673       H  0.12418783  0.73834120  0.64745194     0.10000
H1674       H  0.14401803  0.79128809  0.65375661     0.11100
H1675       H  0.03916306  0.68040839  0.64501861     0.11200
H1676       H  0.10017834  0.68638853  0.65169902     0.13100
H1677       H  0.08752132  0.63527195  0.66053460     0.09600
H1678       H  0.05260582  0.58050564  0.66264243     0.11700
H1679       H  0.99199672  0.58569922  0.63556975     0.08300
H1680       H  0.02717448  0.63971264  0.63295827     0.11100
C1681       C  0.04105237  0.87740096  0.66672626    -0.03500
C1682       C  0.03992424  0.89765995  0.65800163    -0.06100
C1683       C  0.01406682  0.90028285  0.65714115    -0.21200
C1684       C  0.98868770  0.88271732  0.66493365     0.24500
C1685       C  0.98943502  0.86176552  0.67338967    -0.18800
C1686       C  0.01525594  0.85907176  0.67422412    -0.08700
C1687       C  0.96302702  0.88861459  0.66471301    -0.19000
C1688       C  0.93474943  0.86864139  0.66877431    -0.23800
C1689       C  0.90975638  0.87544757  0.66894657     0.26600
C1690       C  0.87982473  0.85172298  0.66725703    -0.20600
C1691       C  0.85580165  0.85734634  0.66717529    -0.10200
C1692       C  0.86110052  0.88681001  0.66903711    -0.10800
C1693       C  0.89095956  0.91040482  0.67124209    -0.03700
C1694       C  0.91506797  0.90481950  0.67115459    -0.18800
H1695       H  0.05941776  0.91225341  0.65213036     0.10300
H1696       H  0.01418327  0.91666863  0.65057711     0.10400
H1697       H  0.97076069  0.84838795  0.67981995     0.10000
H1698       H  0.01551844  0.84365226  0.68121931     0.11100
H1699       H  0.96757059  0.91014316  0.66081456     0.11200
H1700       H  0.92914570  0.84598104  0.67150624     0.13100
H1701       H  0.87507968  0.82884581  0.66570671     0.09600
H1702       H  0.83307368  0.83862316  0.66547746     0.11700
H1703       H  0.89579679  0.93332908  0.67270849     0.08300
H1704       H  0.93778418  0.92347499  0.67289360     0.11100
C1705       C  0.34755329  0.84220718  0.48558252    -0.03500
C1706       C  0.35307127  0.82617450  0.47609465    -0.06100
C1707       C  0.38242657  0.83126197  0.47416567    -0.21200
C1708       C  0.40664309  0.85186837  0.48187853     0.24500
C1709       C  0.40109107  0.86791035  0.49134715    -0.18800
C1710       C  0.37194573  0.86322100  0.49312979    -0.08700
C1711       C  0.43759037  0.85691389  0.47963150    -0.19000
C1712       C  0.45807494  0.86434656  0.48907786    -0.23800
C1713       C  0.48844106  0.86806706  0.48692587     0.26600
C1714       C  0.50033240  0.85704325  0.49611491    -0.20600
C1715       C  0.52817570  0.85877785  0.49407353    -0.10200
C1716       C  0.54514365  0.87241199  0.48295523    -0.10800
C1717       C  0.53400423  0.88498191  0.47407678    -0.03700
C1718       C  0.50575417  0.88257622  0.47598220    -0.18800
H1719       H  0.33476947  0.80990330  0.47010937     0.10300
H1720       H  0.38617362  0.81879332  0.46673764     0.10400
H1721       H  0.41932377  0.88450195  0.49725400     0.10000
H1722       H  0.36845160  0.87588225  0.50054741     0.11100
H1723       H  0.44307525  0.85273480  0.47008744     0.11200
H1724       H  0.45159456  0.86532919  0.49888115     0.13100
H1725       H  0.48752437  0.84608994  0.50468678     0.09600
H1726       H  0.53619209  0.84894573  0.50109248     0.11700
H1727       H  0.54650608  0.89550561  0.46539473     0.08300
H1728       H  0.49739356  0.89191624  0.46889000     0.11100
C1729       C  0.22969401  0.84893712  0.53780866    -0.03500
C1730       C  0.20672897  0.85613591  0.53893791    -0.06100
C1731       C  0.19988282  0.86365919  0.55080405    -0.21200
C1732       C  0.21525307  0.86339462  0.56183995     0.24500
C1733       C  0.23789311  0.85566092  0.56079630    -0.18800
C1734       C  0.24520717  0.84872034  0.54885170    -0.08700
C1735       C  0.20818268  0.87286349  0.57412892    -0.19000
C1736       C  0.20973456  0.86157319  0.58551901    -0.23800
C1737       C  0.20145310  0.87076590  0.59759828     0.26600
C1738       C  0.18675377  0.84930404  0.60730632    -0.20600
C1739       C  0.17816728  0.85730256  0.61868485    -0.10200
C1740       C  0.18485057  0.88717288  0.62069141    -0.10800
C1741       C  0.20026480  0.90882259  0.61107301    -0.03700
C1742       C  0.20833128  0.90068267  0.59961613    -0.18800
H1743       H  0.19457829  0.85675080  0.53057776     0.10300
H1744       H  0.18250947  0.86974098  0.55137048     0.10400
H1745       H  0.25055916  0.85585225  0.56911140     0.10000
H1746       H  0.26303112  0.84328143  0.54824184     0.11100
H1747       H  0.19962989  0.88836821  0.57369189     0.11200
H1748       H  0.21515193  0.84368786  0.58592647     0.13100
H1749       H  0.18146560  0.82618506  0.60598994     0.09600
H1750       H  0.16660008  0.84018991  0.62596995     0.11700
H1751       H  0.20586039  0.93204059  0.61235252     0.08300
H1752       H  0.22030748  0.91790199  0.59241727     0.11100
C1753       C  0.22272953  0.16325226  0.77848478    -0.03500
C1754       C  0.19269407  0.15617579  0.78052896    -0.06100
C1755       C  0.17686489  0.16130341  0.77089505    -0.21200
C1756       C  0.19040331  0.17252639  0.75893868     0.24500
C1757       C  0.21940787  0.17689061  0.75652725    -0.18800
C1758       C  0.23559775  0.17270610  0.76628875    -0.08700
C1759       C  0.17631028  0.18406342  0.74989873    -0.19000
C1760       C  0.17810139  0.18212157  0.73715659    -0.23800
C1761       C  0.16941317  0.19867503  0.72813435     0.26600
C1762       C  0.15499523  0.18487533  0.71662704    -0.20600
C1763       C  0.15148726  0.20173464  0.70697790    -0.10200
C1764       C  0.16340561  0.23297097  0.70850208    -0.10800
C1765       C  0.17657996  0.24650755  0.72026358    -0.03700
C1766       C  0.17919675  0.22941018  0.73007297    -0.18800
H1767       H  0.18261294  0.14967454  0.78996251     0.10300
H1768       H  0.15466938  0.15804742  0.77299660     0.10400
H1769       H  0.23063655  0.18607083  0.74747369     0.10000
H1770       H  0.25894942  0.17894082  0.76459754     0.11100
H1771       H  0.16506985  0.19542307  0.75384810     0.11200
H1772       H  0.18694062  0.16857031  0.73317352     0.13100
H1773       H  0.14761741  0.16131504  0.71489676     0.09600
H1774       H  0.14194414  0.19091393  0.69789636     0.11700
H1775       H  0.18645284  0.27065390  0.72157769     0.08300
H1776       H  0.19093849  0.24072585  0.73877618     0.11100
C1777       C  0.02085815  0.44181239  0.65852512    -0.03500
C1778       C  0.00876985  0.41045446  0.65954101    -0.06100
C1779       C  0.02675952  0.39876857  0.66348546    -0.21200
C1780       C  0.05756380  0.41795826  0.66630654     0.24500
C1781       C  0.06982147  0.44950005  0.66551801    -0.18800
C1782       C  0.05149473  0.46132675  0.66174353    -0.08700
C1783       C  0.07539920  0.40349098  0.66995761    -0.19000
C1784       C  0.10572694  0.41623389  0.66867461    -0.23800
C1785       C  0.12100291  0.39811115  0.67005275     0.26600
C1786       C  0.14705579  0.40586320  0.66274792    -0.20600
C1787       C  0.15808860  0.38586842  0.66175615    -0.10200
C1788       C  0.14310533  0.35778362  0.66802539    -0.10800
C1789       C  0.11913927  0.35151244  0.67638309    -0.03700
C1790       C  0.10848454  0.37164953  0.67755229    -0.18800
H1791       H  0.98519166  0.39477222  0.65729067     0.10300
H1792       H  0.01658547  0.37443165  0.66409498     0.10400
H1793       H  0.09333485  0.46500951  0.66786892     0.10000
H1794       H  0.06137511  0.48560573  0.66109534     0.11100
H1795       H  0.06212653  0.37976554  0.67255171     0.11200
H1796       H  0.11898279  0.43909744  0.66497306     0.13100
H1797       H  0.15750315  0.42631590  0.65704073     0.09600
H1798       H  0.17644731  0.39108361  0.65515852     0.11700
H1799       H  0.10737234  0.33006888  0.68138848     0.08300
H1800       H  0.08944113  0.36557836  0.68384219     0.11100
C1801       C  0.19180031  0.20783124  0.66540990    -0.03500
C1802       C  0.21710520  0.20586531  0.66919196    -0.06100
C1803       C  0.21690725  0.17858234  0.66811321    -0.21200
C1804       C  0.19129432  0.15246808  0.66343431     0.24500
C1805       C  0.16643237  0.15464495  0.65913903    -0.18800
C1806       C  0.16671161  0.18201956  0.66011084    -0.08700
C1807       C  0.19149389  0.12354585  0.66314757    -0.19000
C1808       C  0.16617618  0.09605045  0.66417087    -0.23800
C1809       C  0.16617159  0.06694672  0.66448362     0.26600
C1810       C  0.14034570  0.04081689  0.66910187    -0.20600
C1811       C  0.13894324  0.01282815  0.66918151    -0.10200
C1812       C  0.16334291  0.01024581  0.66455871    -0.10800
C1813       C  0.18929126  0.03643352  0.66003738    -0.03700
C1814       C  0.19067171  0.06437070  0.65993986    -0.18800
H1815       H  0.23680721  0.22520720  0.67332139     0.10300
H1816       H  0.23651248  0.17763707  0.67133782     0.10400
H1817       H  0.14669176  0.13525830  0.65507669     0.10000
H1818       H  0.14682449  0.18266161  0.65708062     0.11100
H1819       H  0.21352710  0.12534073  0.66304257     0.11200
H1820       H  0.14448110  0.09473139  0.66544289     0.13100
H1821       H  0.12105833  0.04201655  0.67260564     0.09600
H1822       H  0.11854057  0.99313627  0.67268286     0.11700
H1823       H  0.20841892  0.03528351  0.65629978     0.08300
H1824       H  0.21069353  0.08357747  0.65596557     0.11100
C1825       C  0.86658488  0.01759326  0.66147139    -0.03500
C1826       C  0.89170835  0.01408203  0.65910124    -0.06100
C1827       C  0.92075782  0.03931988  0.65782763    -0.21200
C1828       C  0.92543121  0.06859141  0.65898569     0.24500
C1829       C  0.90008334  0.07219396  0.66043388    -0.18800
C1830       C  0.87097556  0.04693030  0.66170271    -0.08700
C1831       C  0.95704800  0.09458159  0.65899862    -0.19000
C1832       C  0.96516534  0.12095139  0.66487900    -0.23800
C1833       C  0.99684985  0.14655965  0.66542541     0.26600
C1834       C  0.00171925  0.17592131  0.66632501    -0.20600
C1835       C  0.03108528  0.20081232  0.66658161    -0.10200
C1836       C  0.05632836  0.19688220  0.66617308    -0.10800
C1837       C  0.05155949  0.16742248  0.66583292    -0.03700
C1838       C  0.02203122  0.14241741  0.66541892    -0.18800
H1839       H  0.88917541  0.99181860  0.65874469     0.10300
H1840       H  0.93981839  0.03592920  0.65648763     0.10400
H1841       H  0.90258103  0.09440807  0.66077881     0.10000
H1842       H  0.85209295  0.05044230  0.66333734     0.11100
H1843       H  0.97432400  0.09127425  0.65454974     0.11200
H1844       H  0.94801854  0.12439050  0.66935394     0.13100
H1845       H  0.98270837  0.17966213  0.66653606     0.09600
H1846       H  0.03400829  0.22323603  0.66695578     0.11700
H1847       H  0.07060441  0.16375543  0.66554821     0.08300
H1848       H  0.01903138  0.11998142  0.66517986     0.11100
C1849       C  0.28145163  0.36299406  0.65897103    -0.03500
C1850       C  0.29049118  0.39383101  0.65837653    -0.06100
C1851       C  0.32111080  0.41582337  0.65648367    -0.21200
C1852       C  0.34296940  0.40726819  0.65481195     0.24500
C1853       C  0.33367550  0.37634653  0.65526538    -0.18800
C1854       C  0.30336794  0.35455677  0.65734828    -0.08700
C1855       C  0.37570914  0.43059189  0.65372464    -0.19000
C1856       C  0.39498895  0.42529775  0.64697524    -0.23800
C1857       C  0.42864320  0.44273429  0.64813626     0.26600
C1858       C  0.44430266  0.42845969  0.64393854    -0.20600
C1859       C  0.47517243  0.44120376  0.64632676    -0.10200
C1860       C  0.49144660  0.46893083  0.65274517    -0.10800
C1861       C  0.47652577  0.48448776  0.65622859    -0.03700
C1862       C  0.44521099  0.47139506  0.65401306    -0.18800
H1863       H  0.27407228  0.40096242  0.65974549     0.10300
H1864       H  0.32777151  0.43951131  0.65638764     0.10400
H1865       H  0.34996981  0.36890904  0.65449240     0.10000
H1866       H  0.29713457  0.33100397  0.65782394     0.11100
H1867       H  0.38397339  0.45118839  0.65924340     0.11200
H1868       H  0.38543985  0.40490957  0.64118125     0.13100
H1869       H  0.43229685  0.40649132  0.63935868     0.09600
H1870       H  0.48620807  0.42877342  0.64357096     0.11700
H1871       H  0.48864508  0.50581007  0.66128824     0.08300
H1872       H  0.43410472  0.48338995  0.65720138     0.11100
C1873       C  0.23983789  0.54578795  0.48692562    -0.03500
C1874       C  0.20998668  0.53975782  0.48548418    -0.06100
C1875       C  0.20400992  0.56335543  0.48478501    -0.21200
C1876       C  0.22761876  0.59340648  0.48585583     0.24500
C1877       C  0.25770121  0.59964514  0.48679929    -0.18800
C1878       C  0.26377773  0.57595506  0.48724699    -0.08700
C1879       C  0.21993473  0.61756782  0.48617738    -0.19000
C1880       C  0.23462628  0.64194937  0.49378788    -0.23800
C1881       C  0.22706078  0.66626737  0.49465845     0.26600
C1882       C  0.24938006  0.69468374  0.49918869    -0.20600
C1883       C  0.24461401  0.71913622  0.49899947    -0.10200
C1884       C  0.21721441  0.71560978  0.49440531    -0.10800
C1885       C  0.19385262  0.68662390  0.49087817    -0.03700
C1886       C  0.19870750  0.66212742  0.49098352    -0.18800
H1887       H  0.19113345  0.51669741  0.48508557     0.10300
H1888       H  0.18073800  0.55808385  0.48389704     0.10400
H1889       H  0.27644387  0.62273488  0.48727140     0.10000
H1890       H  0.28699437  0.58117536  0.48831188     0.11100
H1891       H  0.20067803  0.61411528  0.48053245     0.11200
H1892       H  0.25363792  0.64466296  0.49944795     0.13100
H1893       H  0.27117474  0.69836182  0.50231069     0.09600
H1894       H  0.26300042  0.74120454  0.50183144     0.11700
H1895       H  0.17253498  0.68325297  0.48725959     0.08300
H1896       H  0.18041686  0.64029331  0.48793554     0.11100
C1897       C  0.53331645  0.73864851  0.48732237    -0.03500
C1898       C  0.50662072  0.73315606  0.48116439    -0.06100
C1899       C  0.48052835  0.70440835  0.48166856    -0.21200
C1900       C  0.48057605  0.68062210  0.48832036     0.24500
C1901       C  0.50733739  0.68621734  0.49447588    -0.18800
C1902       C  0.53338199  0.71478744  0.49389689    -0.08700
C1903       C  0.45203594  0.65079343  0.48906870    -0.19000
C1904       C  0.45088794  0.62471478  0.49220608    -0.23800
C1905       C  0.42210088  0.59513955  0.49260074     0.26600
C1906       C  0.42263016  0.56851357  0.49012147    -0.20600
C1907       C  0.39556759  0.54064313  0.48921963    -0.10200
C1908       C  0.36748214  0.53888484  0.49098606    -0.10800
C1909       C  0.36722891  0.56527101  0.49443742    -0.03700
C1910       C  0.39418373  0.59304691  0.49524237    -0.18800
H1911       H  0.50582972  0.75107821  0.47604047     0.10300
H1912       H  0.46016701  0.70077681  0.47690087     0.10400
H1913       H  0.50823425  0.66896939  0.50005371     0.10000
H1914       H  0.55344823  0.71833578  0.49889622     0.11100
H1915       H  0.43127108  0.65024324  0.48640720     0.11200
H1916       H  0.47169660  0.62441540  0.49366560     0.13100
H1917       H  0.44394578  0.56947375  0.48831530     0.09600
H1918       H  0.39660310  0.52075829  0.48662340     0.11700
H1919       H  0.34606681  0.56480006  0.49597928     0.08300
H1920       H  0.39297309  0.61286239  0.49775067     0.11100
C1921       C  0.17600492  0.33447613  0.61968215    -0.03500
C1922       C  0.15298260  0.33317695  0.61191753    -0.06100
C1923       C  0.15959270  0.34592360  0.59972138    -0.21200
C1924       C  0.18927606  0.36012007  0.59491863     0.24500
C1925       C  0.21253506  0.36196122  0.60272744    -0.18800
C1926       C  0.20592449  0.34922681  0.61498691    -0.08700
C1927       C  0.19487353  0.37364033  0.58194895    -0.19000
C1928       C  0.21933439  0.38041218  0.57473200    -0.23800
C1929       C  0.22382426  0.39393675  0.56178008     0.26600
C1930       C  0.24162491  0.38948541  0.55282009    -0.20600
C1931       C  0.24576886  0.40153104  0.54048376    -0.10200
C1932       C  0.23242374  0.41858213  0.53692027    -0.10800
C1933       C  0.21523461  0.42362564  0.54600986    -0.03700
C1934       C  0.21110079  0.41160199  0.55829629    -0.18800
H1935       H  0.12971619  0.32216347  0.61522279     0.10300
H1936       H  0.14131759  0.34448141  0.59396522     0.10400
H1937       H  0.23586435  0.37353489  0.59953042     0.10000
H1938       H  0.22424142  0.35083634  0.62075661     0.11100
H1939       H  0.17712110  0.37683286  0.57797597     0.11200
H1940       H  0.23580300  0.37459972  0.57805883     0.13100
H1941       H  0.25204073  0.37634338  0.55532249     0.09600
H1942       H  0.25947552  0.39753987  0.53376111     0.11700
H1943       H  0.20493606  0.43694865  0.54365676     0.08300
H1944       H  0.19828880  0.41665084  0.56506464     0.11100
C1945       C  0.49970757  0.29469528  0.04168998    -0.03500
C1946       C  0.48115740  0.28709158  0.05253368    -0.06100
C1947       C  0.49283472  0.30223755  0.06406477    -0.21200
C1948       C  0.52310415  0.32592925  0.06494776     0.24500
C1949       C  0.54237607  0.33209259  0.05434143    -0.18800
C1950       C  0.53073246  0.31634684  0.04280419    -0.08700
C1951       C  0.53204825  0.34473649  0.07674790    -0.19000
C1952       C  0.55504052  0.37366902  0.07770915    -0.23800
C1953       C  0.55592554  0.39254185  0.08870258     0.26600
C1954       C  0.58287326  0.41140632  0.09542052    -0.20600
C1955       C  0.58230227  0.42661130  0.10656231    -0.10200
C1956       C  0.55480997  0.42347272  0.11095235    -0.10800
C1957       C  0.52853128  0.40643492  0.10353723    -0.03700
C1958       C  0.52908183  0.39123283  0.09262318    -0.18800
H1959       H  0.45711375  0.27077930  0.05185271     0.10300
H1960       H  0.47749786  0.29682922  0.07208653     0.10400
H1961       H  0.56596351  0.34976324  0.05473568     0.10000
H1962       H  0.54534039  0.32291842  0.03447388     0.11100
H1963       H  0.51641195  0.33538248  0.08477205     0.11200
H1964       H  0.57190611  0.38414487  0.07021104     0.13100
H1965       H  0.60398720  0.41324240  0.09239809     0.09600
H1966       H  0.60296954  0.43968732  0.11199459     0.11700
H1967       H  0.50703062  0.40395503  0.10638323     0.08300
H1968       H  0.50819880  0.37785471  0.08734816     0.11100
C1969       C  0.43493975  0.57982408  0.37501273    -0.03500
C1970       C  0.41580997  0.59191577  0.37394932    -0.06100
C1971       C  0.39719854  0.58981092  0.38418618    -0.21200
C1972       C  0.39834014  0.57672084  0.39577635     0.24500
C1973       C  0.41960601  0.56730948  0.39723564    -0.18800
C1974       C  0.43743902  0.56842792  0.38686557    -0.08700
C1975       C  0.37362996  0.56744417  0.40522069    -0.19000
C1976       C  0.37850177  0.56927414  0.41786869    -0.23800
C1977       C  0.35367264  0.55106489  0.42695629     0.26600
C1978       C  0.35024684  0.56421760  0.43810296    -0.20600
C1979       C  0.33042672  0.54597321  0.44777619    -0.10200
C1980       C  0.31476409  0.51428265  0.44662450    -0.10800
C1981       C  0.31728140  0.50127517  0.43522484    -0.03700
C1982       C  0.33624246  0.51954985  0.42539353    -0.18800
H1983       H  0.41300696  0.60021165  0.36482906     0.10300
H1984       H  0.38068802  0.59682318  0.38282679     0.10400
H1985       H  0.42046404  0.55654989  0.40600680     0.10000
H1986       H  0.45166699  0.55854894  0.38784606     0.11100
H1987       H  0.35049133  0.55623931  0.40165296     0.11200
H1988       H  0.40148096  0.58206955  0.42156785     0.13100
H1989       H  0.36379478  0.58844600  0.43953115     0.09600
H1990       H  0.32938984  0.55647819  0.45660368     0.11700
H1991       H  0.30587209  0.47691308  0.43421764     0.08300
H1992       H  0.33902453  0.50892221  0.41695956     0.11100
C1993       C  0.51806151  0.55831248  0.28599556    -0.03500
C1994       C  0.54632418  0.57840724  0.28043020    -0.06100
C1995       C  0.55438635  0.57212597  0.26854794    -0.21200
C1996       C  0.53433572  0.54583758  0.26178072     0.24500
C1997       C  0.50614625  0.52538334  0.26739920    -0.18800
C1998       C  0.49815004  0.53156537  0.27939406    -0.08700
C1999       C  0.54423515  0.54060517  0.24908875    -0.19000
C2000       C  0.52509362  0.52233703  0.23994765    -0.23800
C2001       C  0.53507544  0.51822596  0.22704004     0.26600
C2002       C  0.51341783  0.50552758  0.21723735    -0.20600
C2003       C  0.52151727  0.50097179  0.20500557    -0.10200
C2004       C  0.55157034  0.50885443  0.20224952    -0.10800
C2005       C  0.57327097  0.52143554  0.21206799    -0.03700
C2006       C  0.56515294  0.52594884  0.22431435    -0.18800
H2007       H  0.56232682  0.59913365  0.28526030     0.10300
H2008       H  0.57633240  0.58815054  0.26454478     0.10400
H2009       H  0.49034214  0.50445502  0.26268369     0.10000
H2010       H  0.47622702  0.51559891  0.28342097     0.11100
H2011       H  0.56829149  0.55392651  0.24701926     0.11200
H2012       H  0.50085132  0.51094001  0.24167873     0.13100
H2013       H  0.49006950  0.49917875  0.21903150     0.09600
H2014       H  0.50413745  0.49119629  0.19771224     0.11700
H2015       H  0.59659200  0.52764856  0.21033025     0.08300
H2016       H  0.58251019  0.53498369  0.23159535     0.11100
C2017       C  0.84056186  0.56860546  0.04048792    -0.03500
C2018       C  0.82717107  0.53709295  0.03936311    -0.06100
C2019       C  0.82957731  0.52027621  0.04933553    -0.21200
C2020       C  0.84432825  0.53459183  0.06071466     0.24500
C2021       C  0.85544635  0.56572168  0.06221568    -0.18800
C2022       C  0.85401566  0.58269140  0.05208838    -0.08700
C2023       C  0.85245309  0.51833812  0.07008392    -0.19000
C2024       C  0.85083480  0.52179311  0.08270659    -0.23800
C2025       C  0.86659628  0.51308494  0.09207979     0.26600
C2026       C  0.85252059  0.50026673  0.10376296    -0.20600
C2027       C  0.86922510  0.49791303  0.11379236    -0.10200
C2028       C  0.90052200  0.50948690  0.11242858    -0.10800
C2029       C  0.91433993  0.52101901  0.10054362    -0.03700
C2030       C  0.89735162  0.52230367  0.09034940    -0.18800
H2031       H  0.81740660  0.52595041  0.03035405     0.10300
H2032       H  0.82120638  0.49639047  0.04795255     0.10400
H2033       H  0.86748090  0.57736253  0.07082033     0.10000
H2034       H  0.86505742  0.60704748  0.05302053     0.11100
H2035       H  0.86193013  0.50497832  0.06652356     0.11200
H2036       H  0.83930484  0.53322211  0.08626241     0.13100
H2037       H  0.82897646  0.49347913  0.10532642     0.09600
H2038       H  0.85831075  0.48969694  0.12299053     0.11700
H2039       H  0.93856394  0.53064919  0.09939362     0.08300
H2040       H  0.90882505  0.53287315  0.08148674     0.11100
C2041       C  0.67163899  0.50639429  0.15042094    -0.03500
C2042       C  0.69550091  0.53653453  0.15158877    -0.06100
C2043       C  0.72566577  0.54364196  0.15127541    -0.21200
C2044       C  0.73285617  0.52082760  0.15000614     0.24500
C2045       C  0.70913033  0.49072306  0.14830527    -0.18800
C2046       C  0.67875892  0.48359511  0.14846473    -0.08700
C2047       C  0.76535683  0.52957168  0.15033094    -0.19000
C2048       C  0.77508461  0.51126192  0.15470387    -0.23800
C2049       C  0.80768243  0.52002230  0.15524158     0.26600
C2050       C  0.81604401  0.50300195  0.16292638    -0.20600
C2051       C  0.84577368  0.50847522  0.16275294    -0.10200
C2052       C  0.86794007  0.53122380  0.15489170    -0.10800
C2053       C  0.85993032  0.54916467  0.14763642    -0.03700
C2054       C  0.83016045  0.54353321  0.14772531    -0.18800
H2055       H  0.69087503  0.55472267  0.15298776     0.10300
H2056       H  0.74347242  0.56703156  0.15240350     0.10400
H2057       H  0.71395492  0.47269876  0.14687285     0.10000
H2058       H  0.66089331  0.46020515  0.14747141     0.11100
H2059       H  0.78176643  0.55269744  0.14771244     0.11200
H2060       H  0.75855474  0.48913428  0.15841839     0.13100
H2061       H  0.79928391  0.48478699  0.16881865     0.09600
H2062       H  0.85111142  0.49412124  0.16841371     0.11700
H2063       H  0.87624237  0.56645774  0.14127861     0.08300
H2064       H  0.82474197  0.55677175  0.14140553     0.11100
C2065       C  0.17212526  0.64837908  0.37395250    -0.03500
C2066       C  0.18042420  0.63236606  0.38229070     0.11900
C2067       C  0.19627261  0.64603751  0.39360363    -0.21200
C2068       C  0.20460825  0.67604155  0.39657835     0.24500
C2069       C  0.19750231  0.69232543  0.38786098    -0.18800
C2070       C  0.18159489  0.67871405  0.37672786    -0.08700
C2071       C  0.21638840  0.68844575  0.40951171    -0.19000
C2072       C  0.23095660  0.71835915  0.41212030    -0.23800
C2073       C  0.23304560  0.73088713  0.42514697     0.26600
C2074       C  0.25333049  0.76184989  0.42739785    -0.20600
C2075       C  0.25262709  0.77532031  0.43897853    -0.10200
C2076       C  0.23108939  0.75810321  0.44835886    -0.10800
C2077       C  0.21137395  0.72702588  0.44622344    -0.03700
C2078       C  0.21230711  0.71356283  0.43479851    -0.18800
H2079       H  0.17367727  0.60905605  0.38032813     0.10300
H2080       H  0.20122822  0.63289968  0.40022566     0.10400
H2081       H  0.20259478  0.71510182  0.38987721     0.10000
H2082       H  0.17605584  0.69193163  0.37040792     0.11100
H2083       H  0.21048079  0.67224875  0.41722501     0.11200
H2084       H  0.23963068  0.73450132  0.40429823     0.13100
H2085       H  0.26919469  0.77581274  0.42003512     0.09600
H2086       H  0.26800387  0.79931117  0.44038417     0.11700
H2087       H  0.19468361  0.71309954  0.45334975     0.08300
H2088       H  0.19564615  0.68993618  0.43338702     0.11100
C2089       C  0.99303769  0.52610220  0.20349491    -0.03500
C2090       C  0.97709974  0.50655041  0.21367399    -0.06100
C2091       C  0.98789077  0.51401260  0.22613320    -0.21200
C2092       C  0.01511289  0.54083338  0.22866346     0.24500
C2093       C  0.03120711  0.56055513  0.21851544    -0.18800
C2094       C  0.02011505  0.55329054  0.20601275    -0.08700
C2095       C  0.02556955  0.54746946  0.24204725    -0.19000
C2096       C  0.05497927  0.56304775  0.24530468    -0.23800
C2097       C  0.06464046  0.56573011  0.25877534     0.26600
C2098       C  0.09119511  0.56541280  0.26159721    -0.20600
C2099       C  0.09981263  0.56576586  0.27426619    -0.10200
C2100       C  0.08226426  0.56700416  0.28434649    -0.10800
C2101       C  0.05618833  0.56837320  0.28149542    -0.03700
C2102       C  0.04741576  0.56770287  0.26881673    -0.18800
H2103       H  0.95601967  0.48556893  0.21202933     0.10300
H2104       H  0.97508258  0.49858494  0.23381865     0.10400
H2105       H  0.05199543  0.58173559  0.22023101     0.10000
H2106       H  0.03279914  0.56873914  0.19832036     0.11100
H2107       H  0.00850161  0.53663542  0.24947511     0.11200
H2108       H  0.07233077  0.57115301  0.23793003     0.13100
H2109       H  0.10488723  0.56412494  0.25399020     0.09600
H2110       H  0.12030956  0.56519024  0.27615440     0.11700
H2111       H  0.04242400  0.56970607  0.28905404     0.08300
H2112       H  0.02723655  0.56882242  0.26689216     0.11100
C2113       C  0.37409163  0.54721800  0.33349115    -0.03500
C2114       C  0.37467870  0.57246102  0.32791349    -0.06100
C2115       C  0.34897475  0.57531135  0.32798895    -0.21200
C2116       C  0.32171521  0.55298192  0.33351297     0.24500
C2117       C  0.32050846  0.52691075  0.33858173    -0.18800
C2118       C  0.34646106  0.52411423  0.33857552    -0.08700
C2119       C  0.29616881  0.55912423  0.33434878    -0.19000
C2120       C  0.26717829  0.53848874  0.33726279    -0.23800
C2121       C  0.24256072  0.54600477  0.33758681     0.26600
C2122       C  0.21285162  0.52340635  0.33456988    -0.20600
C2123       C  0.18943500  0.52992837  0.33412630    -0.10200
C2124       C  0.19500533  0.55918929  0.33688623    -0.10800
C2125       C  0.22448970  0.58153479  0.34047442    -0.03700
C2126       C  0.24801824  0.57503830  0.34082307    -0.18800
H2127       H  0.39546769  0.59087547  0.32397055     0.10300
H2128       H  0.35069635  0.59560180  0.32399019     0.10400
H2129       H  0.30011463  0.50922480  0.34304581     0.10000
H2130       H  0.34520510  0.50447451  0.34304089     0.11100
H2131       H  0.30155146  0.58194278  0.33201532     0.11200
H2132       H  0.26067152  0.51499860  0.33860221     0.13100
H2133       H  0.20787998  0.50078773  0.33219237     0.09600
H2134       H  0.16698595  0.51206800  0.33139420     0.11700
H2135       H  0.22954083  0.60422585  0.34273357     0.08300
H2136       H  0.27041588  0.59279573  0.34363422     0.11100
C2137       C  0.75340877  0.22828258  0.03922843    -0.03500
C2138       C  0.72210690  0.21669432  0.03802922    -0.06100
C2139       C  0.70456554  0.21413201  0.04865114    -0.21200
C2140       C  0.71779785  0.22296249  0.06077394     0.24500
C2141       C  0.74957776  0.23651277  0.06189763    -0.18800
C2142       C  0.76732446  0.23928575  0.05113013    -0.08700
C2143       C  0.69701392  0.21308890  0.07195530    -0.19000
C2144       C  0.70517024  0.22303268  0.08400023    -0.23800
C2145       C  0.68481071  0.20664229  0.09491599     0.26600
C2146       C  0.68437485  0.22247029  0.10578589    -0.20600
C2147       C  0.66739204  0.20671925  0.11657520    -0.10200
C2148       C  0.65137632  0.17492870  0.11674258    -0.10800
C2149       C  0.65144274  0.15916491  0.10581327    -0.03700
C2150       C  0.66774776  0.17481947  0.09497502    -0.18800
H2151       H  0.71091612  0.20818736  0.02890826     0.10300
H2152       H  0.68023716  0.20363222  0.04749178     0.10400
H2153       H  0.76053130  0.24312927  0.07112989     0.10000
H2154       H  0.79139031  0.24799268  0.05227147     0.11100
H2155       H  0.67374833  0.19518538  0.07025310     0.11200
H2156       H  0.72726722  0.24259361  0.08599564     0.13100
H2157       H  0.69767278  0.24694841  0.10601594     0.09600
H2158       H  0.66829538  0.21929743  0.12505260     0.11700
H2159       H  0.63976624  0.13467222  0.10583960     0.08300
H2160       H  0.66830164  0.16191438  0.08689287     0.11100
C2161       C  0.70330928  0.20330011  0.16194284    -0.03500
C2162       C  0.73100519  0.20396975  0.16060502    -0.06100
C2163       C  0.75852163  0.23151172  0.16083354    -0.21200
C2164       C  0.75885021  0.25886894  0.16222309     0.24500
C2165       C  0.73136543  0.25802734  0.16450952    -0.18800
C2166       C  0.70393026  0.23056997  0.16437382    -0.08700
C2167       C  0.78801070  0.28795678  0.16116740    -0.19000
C2168       C  0.78955394  0.31315439  0.15642198    -0.23800
C2169       C  0.81771087  0.34334781  0.15551728     0.26600
C2170       C  0.81607542  0.36688505  0.14941414    -0.20600
C2171       C  0.84113970  0.39626473  0.14912842    -0.10200
C2172       C  0.86854718  0.40274396  0.15488564    -0.10800
C2173       C  0.87050342  0.37909600  0.16070045    -0.03700
C2174       C  0.84539613  0.34977711  0.16107474    -0.18800
H2175       H  0.73138410  0.18339272  0.15877861     0.10300
H2176       H  0.77948372  0.23155380  0.15932409     0.10400
H2177       H  0.73091416  0.27860527  0.16618944     0.10000
H2178       H  0.68310317  0.23095214  0.16554891     0.11100
H2179       H  0.80842398  0.28786351  0.16378482     0.11200
H2180       H  0.76887941  0.31166659  0.15291006     0.13100
H2181       H  0.79508913  0.36267107  0.14505643     0.09600
H2182       H  0.83889558  0.41397972  0.14457537     0.11700
H2183       H  0.89125152  0.38339664  0.16531819     0.08300
H2184       H  0.84783355  0.33269075  0.16603557     0.11100
C2185       C  0.57892075  0.21436584  0.15732538    -0.03500
C2186       C  0.60418823  0.24327950  0.15520224    -0.06100
C2187       C  0.60107072  0.26888853  0.15531794    -0.21200
C2188       C  0.57269987  0.26622489  0.15755506     0.24500
C2189       C  0.54721702  0.23707873  0.15911021    -0.18800
C2190       C  0.55036065  0.21158134  0.15905865    -0.08700
C2191       C  0.57071621  0.29426179  0.15797251    -0.19000
C2192       C  0.54638514  0.29536067  0.16226904    -0.23800
C2193       C  0.54444986  0.32326599  0.16175955     0.26600
C2194       C  0.51622909  0.32072238  0.15946386    -0.20600
C2195       C  0.51396148  0.34658306  0.15784255    -0.10200
C2196       C  0.53989551  0.37558314  0.15866138    -0.10800
C2197       C  0.56781059  0.37804305  0.16181247    -0.03700
C2198       C  0.57008050  0.35219235  0.16333719    -0.18800
H2199       H  0.62649737  0.24621472  0.15380826     0.10300
H2200       H  0.62104996  0.29095526  0.15389413     0.10400
H2201       H  0.52469939  0.23353435  0.16035891     0.10000
H2202       H  0.53031923  0.18960057  0.16054388     0.11100
H2203       H  0.59021091  0.31491217  0.15444870     0.11200
H2204       H  0.52639920  0.27505966  0.16563148     0.13100
H2205       H  0.49608108  0.29863976  0.15837195     0.09600
H2206       H  0.49213905  0.34380900  0.15540028     0.11700
H2207       H  0.58821138  0.40000507  0.16266169     0.08300
H2208       H  0.59196702  0.35492166  0.16558765     0.11100
C2209       C  0.57085936  0.83514198  0.44079413    -0.03500
C2210       C  0.58469948  0.84380053  0.42872618    -0.06100
C2211       C  0.56791706  0.84315883  0.41805697    -0.21200
C2212       C  0.53738948  0.83496189  0.41939968     0.24500
C2213       C  0.52301148  0.82426028  0.43127937    -0.18800
C2214       C  0.53957448  0.82403717  0.44186790    -0.08700
C2215       C  0.52214719  0.84075675  0.40865677    -0.19000
C2216       C  0.50579143  0.85431115  0.41055941    -0.23800
C2217       C  0.49843586  0.86846982  0.39989758     0.26600
C2218       C  0.48775762  0.85380858  0.38808446    -0.20600
C2219       C  0.48550696  0.86954276  0.37760588    -0.10200
C2220       C  0.49462427  0.90029227  0.37873441    -0.10800
C2221       C  0.50356916  0.91434862  0.39073182    -0.03700
C2222       C  0.50486038  0.89834756  0.40129360    -0.18800
H2223       H  0.60882315  0.85260537  0.42770094     0.10300
H2224       H  0.57937817  0.85129501  0.40895832     0.10400
H2225       H  0.49934841  0.81735867  0.43249844     0.10000
H2226       H  0.52849697  0.81762873  0.45111565     0.11100
H2227       H  0.52867956  0.83872408  0.39897698     0.11200
H2228       H  0.50246797  0.85977312  0.42024626     0.13100
H2229       H  0.48235030  0.83063984  0.38684172     0.09600
H2230       H  0.47907300  0.85842988  0.36837938     0.11700
H2231       H  0.51106425  0.93813897  0.39176334     0.08300
H2232       H  0.51305275  0.91001291  0.41033646     0.11100
C2233       C  0.19612784  0.69002477  0.32740057    -0.03500
C2234       C  0.19753951  0.71797638  0.32603950    -0.06100
C2235       C  0.22551625  0.74466024  0.32451143    -0.21200
C2236       C  0.25259416  0.74398290  0.32444028     0.24500
C2237       C  0.25101951  0.71585402  0.32491339    -0.18800
C2238       C  0.22311289  0.68920890  0.32639799    -0.08700
C2239       C  0.28199480  0.77299226  0.32420032    -0.19000
C2240       C  0.30739571  0.77640688  0.32971695    -0.23800
C2241       C  0.33655117  0.80571629  0.33068365     0.26600
C2242       C  0.36281476  0.80545865  0.33440563    -0.20600
C2243       C  0.39064811  0.83247421  0.33561175    -0.10200
C2244       C  0.39275806  0.86038479  0.33314571    -0.10800
C2245       C  0.36639086  0.86066762  0.32966117    -0.03700
C2246       C  0.33865065  0.83376905  0.32848858    -0.18800
H2247       H  0.17722082  0.71944817  0.32675263     0.10300
H2248       H  0.22611045  0.76603759  0.32396913     0.10400
H2249       H  0.27129748  0.71432123  0.32433340     0.10000
H2250       H  0.22285573  0.66804990  0.32725617     0.11100
H2251       H  0.28186711  0.79219813  0.31998871     0.11200
H2252       H  0.30681927  0.75691639  0.33405757     0.13100
H2253       H  0.36185198  0.78423193  0.33629262     0.09600
H2254       H  0.41054925  0.83146317  0.33828342     0.11700
H2255       H  0.36714313  0.88178221  0.32776228     0.08300
H2256       H  0.31906795  0.83541120  0.32601974     0.11100
C2257       C  0.52862322  0.87878629  0.33478032    -0.03500
C2258       C  0.55325269  0.87598488  0.33886266    -0.06100
C2259       C  0.55261836  0.84851274  0.33746560    -0.21200
C2260       C  0.52717924  0.82317921  0.33219297     0.24500
C2261       C  0.50322051  0.82634163  0.32753519    -0.18800
C2262       C  0.50396968  0.85381491  0.32878797    -0.08700
C2263       C  0.52630834  0.79384763  0.33154175    -0.19000
C2264       C  0.50033959  0.76693532  0.33261103    -0.23800
C2265       C  0.49909058  0.73738694  0.33186937     0.26600
C2266       C  0.47484569  0.71174715  0.33764747    -0.20600
C2267       C  0.47267097  0.68345286  0.33679912    -0.10200
C2268       C  0.49463479  0.68023708  0.33004155    -0.10800
C2269       C  0.51869519  0.70590494  0.32416653    -0.03700
C2270       C  0.52086091  0.73406432  0.32502897    -0.18800
H2271       H  0.57256414  0.89467602  0.34352362     0.10300
H2272       H  0.57157161  0.84672087  0.34094092     0.10400
H2273       H  0.48376305  0.80755284  0.32299840     0.10000
H2274       H  0.48462362  0.85508656  0.32545787     0.11100
H2275       H  0.54786073  0.79462733  0.33092679     0.11200
H2276       H  0.47926512  0.76647428  0.33457411     0.13100
H2277       H  0.45758139  0.71364085  0.34286016     0.09600
H2278       H  0.45376071  0.66413021  0.34137445     0.11700
H2279       H  0.53581932  0.70424884  0.31873405     0.08300
H2280       H  0.53926105  0.75298312  0.32005950     0.11100
C2281       C  0.51225114  0.00658740  0.29058538    -0.03500
C2282       C  0.49030253  0.00908738  0.28350897    -0.06100
C2283       C  0.49754623  0.02351328  0.27165037    -0.21200
C2284       C  0.52668106  0.03532590  0.26648812     0.24500
C2285       C  0.54890498  0.03335146  0.27361155    -0.18800
C2286       C  0.54175338  0.01918614  0.28558076    -0.08700
C2287       C  0.53296640  0.04990307  0.25375408    -0.19000
C2288       C  0.55338799  0.05031308  0.24552608    -0.23800
C2289       C  0.55723047  0.06266183  0.23239737     0.26600
C2290       C  0.56635217  0.05038193  0.22258084    -0.20600
C2291       C  0.56953329  0.06109382  0.21005405    -0.10200
C2292       C  0.56388704  0.08453892  0.20712269    -0.10800
C2293       C  0.55510313  0.09706277  0.21700789    -0.03700
C2294       C  0.55197507  0.08637957  0.22951662    -0.18800
H2295       H  0.46743939  0.99986566  0.28712344     0.10300
H2296       H  0.48014253  0.02501049  0.26638221     0.10400
H2297       H  0.57183554  0.04297552  0.27004199     0.10000
H2298       H  0.55921129  0.01777268  0.29083490     0.11100
H2299       H  0.51834979  0.05830608  0.25066128     0.11200
H2300       H  0.56584979  0.03913062  0.24806546     0.13100
H2301       H  0.57068130  0.03220408  0.22458528     0.09600
H2302       H  0.57646619  0.05102963  0.20267682     0.11700
H2303       H  0.55110558  0.11550133  0.21513394     0.08300
H2304       H  0.54589604  0.09707347  0.23692607     0.11100
C2305       C  0.15362256  0.84023730  0.16442845    -0.03500
C2306       C  0.16390110  0.82458889  0.15687907    -0.06100
C2307       C  0.15174875  0.79333806  0.15853959    -0.21200
C2308       C  0.12902087  0.77719473  0.16771962     0.24500
C2309       C  0.12082534  0.79352720  0.17600263    -0.18800
C2310       C  0.13269768  0.82459027  0.17424864    -0.08700
C2311       C  0.11254544  0.74333952  0.16773312    -0.19000
C2312       C  0.08283216  0.72663293  0.17077927    -0.23800
C2313       C  0.06337515  0.69342208  0.16859405     0.26600
C2314       C  0.03251105  0.68199943  0.16616963    -0.20600
C2315       C  0.01302591  0.65134371  0.16367982    -0.10200
C2316       C  0.02363167  0.63086937  0.16374950    -0.10800
C2317       C  0.05441701  0.64198569  0.16659526    -0.03700
C2318       C  0.07421082  0.67307384  0.16891997    -0.18800
H2319       H  0.17943316  0.83598179  0.14903181     0.10300
H2320       H  0.15864350  0.78142826  0.15207455     0.10400
H2321       H  0.10425719  0.78216868  0.18350442     0.10000
H2322       H  0.12421560  0.83612003  0.18010590     0.11100
H2323       H  0.12388547  0.73223544  0.16365261     0.11200
H2324       H  0.07104013  0.73829297  0.17364722     0.13100
H2325       H  0.02345315  0.69703228  0.16593623     0.09600
H2326       H  0.98948545  0.64372564  0.16162930     0.11700
H2327       H  0.06326783  0.62679576  0.16680151     0.08300
H2328       H  0.09778228  0.68106143  0.17103576     0.11100
C2329       C  0.29333609  0.98113227  0.15632650    -0.03500
C2330       C  0.31409109  0.01243164  0.15653882    -0.06100
C2331       C  0.34486761  0.02378721  0.15436255    -0.21200
C2332       C  0.35603981  0.00429620  0.15206344     0.24500
C2333       C  0.33535848  0.97287223  0.15166665    -0.18800
C2334       C  0.30421929  0.96141446  0.15374131    -0.08700
C2335       C  0.38938423  0.01831782  0.15023646    -0.19000
C2336       C  0.40520012  0.00401622  0.15169828    -0.23800
C2337       C  0.43903766  0.02112444  0.15214831     0.26600
C2338       C  0.45405368  0.01087287  0.16013431    -0.20600
C2339       C  0.48509909  0.02942729  0.16273843    -0.10200
C2340       C  0.50148340  0.05843912  0.15735573    -0.10800
C2341       C  0.48717389  0.06754783  0.14848336    -0.03700
C2342       C  0.45638455  0.04890280  0.14573127    -0.18800
H2343       H  0.30658514  0.02835097  0.15843958     0.10300
H2344       H  0.36013827  0.04805882  0.15468647     0.10400
H2345       H  0.34300739  0.95713231  0.14970141     0.10000
H2346       H  0.28877059  0.93719195  0.15351927     0.11100
H2347       H  0.40185316  0.04264774  0.14883613     0.11200
H2348       H  0.39343047  0.98021930  0.15422827     0.13100
H2349       H  0.44134509  0.98942487  0.16507019     0.09600
H2350       H  0.49566891  0.02213334  0.16972243     0.11700
H2351       H  0.49949621  0.08984255  0.14419776     0.08300
H2352       H  0.44599442  0.05699003  0.13903793     0.11100
C2353       C  0.41989636  0.88842054  0.86827818    -0.03500
C2354       C  0.43967943  0.89510627  0.87861857    -0.06100
C2355       C  0.42798789  0.88425510  0.89087311    -0.21200
C2356       C  0.39647397  0.86620572  0.89290628     0.24500
C2357       C  0.37700164  0.85800396  0.88230217    -0.18800
C2358       C  0.38862854  0.86910738  0.87016308    -0.08700
C2359       C  0.38455520  0.86056491  0.90623386    -0.19000
C2360       C  0.35545235  0.84071887  0.90946239    -0.23800
C2361       C  0.34235804  0.84249922  0.92191056     0.26600
C2362       C  0.31775282  0.81660198  0.92741080    -0.20600
C2363       C  0.30448481  0.81872767  0.93886659    -0.10200
C2364       C  0.31515452  0.84698443  0.94478556    -0.10800
C2365       C  0.33927484  0.87282046  0.93899749    -0.03700
C2366       C  0.35264647  0.87062356  0.92778800    -0.18800
H2367       H  0.46384020  0.91023551  0.87738778     0.10300
H2368       H  0.44349053  0.89117889  0.89888765     0.10400
H2369       H  0.35264527  0.84476728  0.88338197     0.10000
H2370       H  0.37297270  0.86372219  0.86227844     0.11100
H2371       H  0.39999334  0.87525328  0.91359142     0.11200
H2372       H  0.34031326  0.82377887  0.90267725     0.13100
H2373       H  0.30901570  0.79472145  0.92290322     0.09600
H2374       H  0.28606527  0.79838619  0.94308373     0.11700
H2375       H  0.34833354  0.89504265  0.94321121     0.08300
H2376       H  0.37067364  0.89125030  0.92359086     0.11100
C2377       C  0.96041417  0.70081127  0.99074186    -0.03500
C2378       C  0.96827159  0.73134189  0.99009793    -0.06100
C2379       C  0.99878800  0.75435592  0.98865266    -0.21200
C2380       C  0.02183119  0.74720782  0.98746685     0.24500
C2381       C  0.01371416  0.71660980  0.98788058    -0.18800
C2382       C  0.98352792  0.69382803  0.98951883    -0.08700
C2383       C  0.05443191  0.77159958  0.98681558    -0.19000
C2384       C  0.07506548  0.76771999  0.98033913    -0.23800
C2385       C  0.10879538  0.78723481  0.98129582     0.26600
C2386       C  0.12644706  0.77939992  0.97370302    -0.20600
C2387       C  0.15747358  0.79210027  0.97595504    -0.10200
C2388       C  0.17186759  0.81343360  0.98572317    -0.10800
C2389       C  0.15499082  0.82343277  0.99261129    -0.03700
C2390       C  0.12364304  0.81033014  0.99048785    -0.18800
H2391       H  0.95100727  0.73745926  0.99112540     0.10300
H2392       H  0.00443839  0.77775544  0.98853364     0.10400
H2393       H  0.03082424  0.71018591  0.98741977     0.10000
H2394       H  0.97834147  0.67059536  0.99001243     0.11100
H2395       H  0.06133940  0.79234064  0.99205049     0.11200
H2396       H  0.06669885  0.74762677  0.97442221     0.13100
H2397       H  0.11583159  0.76182742  0.96652903     0.09600
H2398       H  0.16988480  0.78377999  0.97060032     0.11700
H2399       H  0.16544637  0.83939136  0.00038762     0.08300
H2400       H  0.11104441  0.81702026  0.99661339     0.11100
C2401       C  0.30357211  0.95485852  0.00003363    -0.03500
C2402       C  0.33219712  0.97456833  0.00528147    -0.06100
C2403       C  0.34094946  0.00449929  0.00803502    -0.21200
C2404       C  0.32174701  0.01576332  0.00521938     0.24500
C2405       C  0.29275298  0.99599009  0.00018315    -0.18800
C2406       C  0.28356851  0.96556152  0.99777602    -0.08700
C2407       C  0.33365965  0.04848754  0.00735023    -0.19000
C2408       C  0.32951666  0.06616373  0.99904376    -0.23800
C2409       C  0.34930440  0.09984388  0.99881879     0.26600
C2410       C  0.34013299  0.11735136  0.99188442    -0.20600
C2411       C  0.36031329  0.14833689  0.98974636    -0.10200
C2412       C  0.39015984  0.16212704  0.99433436    -0.10800
C2413       C  0.39890347  0.14503768  0.00171715    -0.03700
C2414       C  0.37882297  0.11438265  0.00396881    -0.18800
H2415       H  0.34798771  0.96685750  0.00715113     0.10300
H2416       H  0.36335221  0.01927630  0.01193884     0.10400
H2417       H  0.27733705  0.00402210  0.99808566     0.10000
H2418       H  0.26139594  0.95074963  0.99369113     0.11100
H2419       H  0.34972366  0.05880559  0.01511583     0.11200
H2420       H  0.31316148  0.05563640  0.99136049     0.13100
H2421       H  0.31773479  0.10675643  0.98766091     0.09600
H2422       H  0.35328324  0.16096074  0.98380545     0.11700
H2423       H  0.42196320  0.15512909  0.00520862     0.08300
H2424       H  0.38750197  0.10199000  0.00900002     0.11100
C2425       C  0.22288676  0.84886821  0.03433037    -0.03500
C2426       C  0.19524405  0.82799243  0.04012189    -0.06100
C2427       C  0.18660844  0.83479125  0.05175945    -0.21200
C2428       C  0.20560493  0.86229474  0.05797907     0.24500
C2429       C  0.23298941  0.88350390  0.05209959    -0.18800
C2430       C  0.24148731  0.87686902  0.04037839    -0.08700
C2431       C  0.19580774  0.86819595  0.07045757    -0.19000
C2432       C  0.21539509  0.88472261  0.07980372    -0.23800
C2433       C  0.20592064  0.88968882  0.09262059     0.26600
C2434       C  0.22770766  0.91270561  0.10044986    -0.20600
C2435       C  0.21981829  0.91839754  0.11250947    -0.10200
C2436       C  0.18987404  0.90110299  0.11703867    -0.10800
C2437       C  0.16822307  0.87762356  0.10933480    -0.03700
C2438       C  0.17613598  0.87183353  0.09732302    -0.18800
H2439       H  0.18025075  0.80636550  0.03567064     0.10300
H2440       H  0.16523461  0.81825647  0.05604668     0.10400
H2441       H  0.24769403  0.90532977  0.05644284     0.10000
H2442       H  0.26277617  0.89361212  0.03610784     0.11100
H2443       H  0.17158369  0.85737985  0.07201687     0.11200
H2444       H  0.23957841  0.89508621  0.07804949     0.13100
H2445       H  0.25089930  0.92656182  0.09717355     0.09600
H2446       H  0.23714701  0.93653617  0.11822789     0.11700
H2447       H  0.14507365  0.86352175  0.11260603     0.08300
H2448       H  0.15877995  0.85307997  0.09193057     0.11100
C2449       C  0.62833135  0.04247895  0.16653708    -0.03500
C2450       C  0.60503606  0.01255329  0.16431766    -0.06100
C2451       C  0.61149730  0.98905399  0.16383740    -0.21200
C2452       C  0.64110875  0.99487761  0.16595357     0.24500
C2453       C  0.66396986  0.02454358  0.16896507    -0.18800
C2454       C  0.65767390  0.04806148  0.16916549    -0.08700
C2455       C  0.64853829  0.97080209  0.16340564    -0.19000
C2456       C  0.67085266  0.96924836  0.16954531    -0.23800
C2457       C  0.68236802  0.94910512  0.16544676     0.26600
C2458       C  0.69558982  0.93910132  0.17452394    -0.20600
C2459       C  0.71132315  0.92463129  0.17066389    -0.10200
C2460       C  0.71476609  0.92069173  0.15762759    -0.10800
C2461       C  0.70037795  0.92940688  0.14857493    -0.03700
C2462       C  0.68409729  0.94321068  0.15243158    -0.18800
H2463       H  0.58225727  0.00760535  0.16220229     0.10300
H2464       H  0.59353046  0.96642513  0.16142728     0.10400
H2465       H  0.68714676  0.02999613  0.17040331     0.10000
H2466       H  0.67608598  0.07089176  0.17092995     0.11100
H2467       H  0.63570652  0.95434495  0.15600965     0.11200
H2468       H  0.68176308  0.98388485  0.17771385     0.13100
H2469       H  0.69486381  0.94368323  0.18458946     0.09600
H2470       H  0.72284727  0.91878599  0.17778174     0.11700
H2471       H  0.70328392  0.92714212  0.13844572     0.08300
H2472       H  0.67484962  0.95123405  0.14515524     0.11100
C2473       C  0.86911445  0.88079850  0.15515069    -0.03500
C2474       C  0.87097443  0.85451648  0.15384556    -0.06100
C2475       C  0.89922974  0.85646254  0.15333314    -0.21200
C2476       C  0.92610671  0.88461025  0.15425560     0.24500
C2477       C  0.92429267  0.91101914  0.15458401    -0.18800
C2478       C  0.89610447  0.90911950  0.15501605    -0.08700
C2479       C  0.95555238  0.88560722  0.15501022    -0.19000
C2480       C  0.97960086  0.90721931  0.16151447    -0.23800
C2481       C  0.00915969  0.90838936  0.16262516     0.26600
C2482       C  0.03510905  0.93591184  0.16595224    -0.20600
C2483       C  0.06358287  0.93834322  0.16655751    -0.10200
C2484       C  0.06664380  0.91318387  0.16389082    -0.10800
C2485       C  0.04049217  0.88534670  0.16109798    -0.03700
C2486       C  0.01207572  0.88289245  0.16054979    -0.18800
H2487       H  0.85067276  0.83235521  0.15388374     0.10300
H2488       H  0.90008043  0.83582046  0.15283119     0.10400
H2489       H  0.94457533  0.93316330  0.15472477     0.10000
H2490       H  0.89554279  0.92986791  0.15584298     0.11100
H2491       H  0.95676217  0.86728200  0.15045024     0.11200
H2492       H  0.97784763  0.92522255  0.16613409     0.13100
H2493       H  0.03346857  0.95581368  0.16778116     0.09600
H2494       H  0.08328334  0.96011440  0.16874306     0.11700
H2495       H  0.04199345  0.86541135  0.15917060     0.08300
H2496       H  0.99261197  0.86093539  0.15851506     0.11100
C2497       C  0.58844116  0.57322110  0.15379387    -0.03500
C2498       C  0.56988809  0.58509350  0.15695280    -0.06100
C2499       C  0.58023745  0.61592065  0.15493932    -0.21200
C2500       C  0.60894866  0.63513655  0.14949431     0.24500
C2501       C  0.62659257  0.62255551  0.14568175    -0.18800
C2502       C  0.61646972  0.59205269  0.14785080    -0.08700
C2503       C  0.62186189  0.66858128  0.14953717    -0.19000
C2504       C  0.64448038  0.68740338  0.14161029    -0.23800
C2505       C  0.66430984  0.72057479  0.14373816     0.26600
C2506       C  0.69388216  0.73466401  0.13875734    -0.20600
C2507       C  0.71504114  0.76461443  0.14184189    -0.10200
C2508       C  0.70688711  0.78154880  0.14966098    -0.10800
C2509       C  0.67680178  0.76835515  0.15396940    -0.03700
C2510       C  0.65567027  0.73796432  0.15113351    -0.18800
H2511       H  0.54846064  0.57112233  0.16179330     0.10300
H2512       H  0.56635469  0.62505202  0.15812269     0.10400
H2513       H  0.64920387  0.63651007  0.14185975     0.10000
H2514       H  0.63135786  0.58347399  0.14551425     0.11100
H2515       H  0.61428743  0.67778130  0.15705732     0.11200
H2516       H  0.65119872  0.67769721  0.13396652     0.13100
H2517       H  0.70113960  0.72198804  0.13295342     0.09600
H2518       H  0.73807012  0.77442260  0.13833014     0.11700
H2519       H  0.67006219  0.78109055  0.16000697     0.08300
H2520       H  0.63290321  0.72815364  0.15489552     0.11100
C2521       C  0.56865366  0.75519812  0.93980245    -0.03500
C2522       C  0.55306176  0.76698627  0.93316608    -0.06100
C2523       C  0.53485756  0.75152298  0.92256355    -0.21200
C2524       C  0.53138842  0.72373820  0.91857405     0.24500
C2525       C  0.54687805  0.71199120  0.92528313    -0.18800
C2526       C  0.56515149  0.72743991  0.93570676    -0.08700
C2527       C  0.51443680  0.70897487  0.90662943    -0.19000
C2528       C  0.50225285  0.67906921  0.90434602    -0.23800
C2529       C  0.49361566  0.66473376  0.89144034     0.26600
C2530       C  0.48024919  0.63307873  0.89050653    -0.20600
C2531       C  0.47835174  0.61920758  0.87870473    -0.10200
C2532       C  0.49001254  0.63688159  0.86767702    -0.10800
C2533       C  0.50096445  0.66810114  0.86838948    -0.03700
C2534       C  0.50268504  0.68192530  0.88010935    -0.18800
H2535       H  0.55505990  0.78815556  0.93610796     0.10300
H2536       H  0.52354068  0.76131703  0.91743375     0.10400
H2537       H  0.54583033  0.69130756  0.92227538     0.10000
H2538       H  0.57658536  0.71741467  0.94056870     0.11100
H2539       H  0.51358452  0.72360174  0.89937808     0.11200
H2540       H  0.50088125  0.66452465  0.91217403     0.13100
H2541       H  0.47311400  0.61924209  0.89905661     0.09600
H2542       H  0.47020415  0.59518108  0.87839069     0.11700
H2543       H  0.51020466  0.68217483  0.85995460     0.08300
H2544       H  0.51328584  0.70626637  0.88024398     0.11100
C2545       C  0.78671241  0.11933201  0.98962389    -0.03500
C2546       C  0.79643035  0.11424208  0.97779698    -0.06100
C2547       C  0.79048858  0.08515353  0.97453855    -0.21200
C2548       C  0.77567589  0.06095521  0.98319670     0.24500
C2549       C  0.76720501  0.06649362  0.99522840    -0.18800
C2550       C  0.77243031  0.09522894  0.99834349    -0.08700
C2551       C  0.76520653  0.02944766  0.97896446    -0.19000
C2552       C  0.76150414  0.00740056  0.98709408    -0.23800
C2553       C  0.74205811  0.97456969  0.98416244     0.26600
C2554       C  0.74678508  0.95331447  0.99065931    -0.20600
C2555       C  0.72489125  0.92234502  0.99025811    -0.10200
C2556       C  0.69756735  0.91227674  0.98362031    -0.10800
C2557       C  0.69364987  0.93329600  0.97655184    -0.03700
C2558       C  0.71574558  0.96403314  0.97669905    -0.18800
H2559       H  0.80731838  0.13236249  0.97086826     0.10300
H2560       H  0.79683260  0.08136392  0.96513570     0.10400
H2561       H  0.75501268  0.04827173  0.00200074     0.10000
H2562       H  0.76472887  0.09848157  0.00753915     0.11100
H2563       H  0.75827585  0.02384085  0.96905395     0.11200
H2564       H  0.77092904  0.01346173  0.99667072     0.13100
H2565       H  0.76664670  0.96085780  0.99661905     0.09600
H2566       H  0.72809762  0.90670093  0.99605573     0.11700
H2567       H  0.67249099  0.92617247  0.97160217     0.08300
H2568       H  0.71088796  0.97972124  0.97185100     0.11100
C2569       C  0.54012382  0.84160072  0.97649983    -0.03500
C2570       C  0.54514796  0.87087503  0.97456242    -0.06100
C2571       C  0.52105746  0.87633986  0.97512767    -0.21200
C2572       C  0.49160600  0.85288085  0.97801856     0.24500
C2573       C  0.48637329  0.82333810  0.97957475    -0.18800
C2574       C  0.51042252  0.81774751  0.97873284    -0.08700
C2575       C  0.46700105  0.86011080  0.97916503    -0.19000
C2576       C  0.44286298  0.84497833  0.98697679    -0.23800
C2577       C  0.41791516  0.85182782  0.98821286     0.26600
C2578       C  0.38997947  0.82941612  0.99322468    -0.20600
C2579       C  0.36507939  0.83365673  0.99357526    -0.10200
C2580       C  0.36756341  0.86062680  0.98903095    -0.10800
C2581       C  0.39608150  0.88394135  0.98485253    -0.03700
C2582       C  0.42100105  0.87963482  0.98444892    -0.18800
H2583       H  0.56782665  0.88964668  0.97278987     0.10300
H2584       H  0.52560975  0.89918738  0.97370657     0.10400
H2585       H  0.46379464  0.80453530  0.98142162     0.10000
H2586       H  0.50598914  0.79499124  0.98031699     0.11100
H2587       H  0.46964313  0.87917044  0.97364076     0.11200
H2588       H  0.44074926  0.82611822  0.99252504     0.13100
H2589       H  0.38702746  0.80799369  0.99640921     0.09600
H2590       H  0.34350588  0.81524139  0.99691083     0.11700
H2591       H  0.39882953  0.90500499  0.98129004     0.08300
H2592       H  0.44238026  0.89802885  0.98101058     0.11100
C2593       C  0.70469212  0.78362575  0.99194840    -0.03500
C2594       C  0.71515876  0.78706126  0.00459202    -0.06100
C2595       C  0.73556882  0.77756884  0.00804499    -0.21200
C2596       C  0.74658294  0.76552247  0.99883191     0.24500
C2597       C  0.73707464  0.76349731  0.98607833    -0.18800
C2598       C  0.71613392  0.77213033  0.98272540    -0.08700
C2599       C  0.76466404  0.75154654  0.00279781    -0.19000
C2600       C  0.78594100  0.75150018  0.99518601    -0.23800
C2601       C  0.79849466  0.73119646  0.99710500     0.26600
C2602       C  0.82668498  0.73902191  0.99164984    -0.20600
C2603       C  0.83619414  0.71779557  0.99088998    -0.10200
C2604       C  0.81724971  0.68811037  0.99526475    -0.10800
C2605       C  0.78982889  0.68072399  0.00132977    -0.03700
C2606       C  0.78067656  0.70211827  0.00238247    -0.18800
H2607       H  0.70627942  0.79545171  0.01189834     0.10300
H2608       H  0.74221455  0.77895225  0.01796468     0.10400
H2609       H  0.74442574  0.75358682  0.97880413     0.10000
H2610       H  0.70813648  0.76900423  0.97294267     0.11100
H2611       H  0.75916998  0.73973008  0.01190073     0.11200
H2612       H  0.79319119  0.76562812  0.98667913     0.13100
H2613       H  0.84068876  0.76114291  0.98739449     0.09600
H2614       H  0.85718052  0.72386043  0.98597880     0.11700
H2615       H  0.77470762  0.65785467  0.00465127     0.08300
H2616       H  0.75856924  0.69503144  0.00641046     0.11100
C2617       C  0.65687275  0.84940303  0.02971442    -0.03500
C2618       C  0.65229599  0.86886000  0.03765997    -0.06100
C2619       C  0.66484526  0.87602179  0.04991643    -0.21200
C2620       C  0.68187095  0.86361902  0.05457673     0.24500
C2621       C  0.68624780  0.84393442  0.04668850    -0.18800
C2622       C  0.67386636  0.83691218  0.03440140    -0.08700
C2623       C  0.69608991  0.87301870  0.06738805    -0.19000
C2624       C  0.70392290  0.85623478  0.07452576    -0.23800
C2625       C  0.71866623  0.86621546  0.08720123     0.26600
C2626       C  0.71387729  0.84435538  0.09641121    -0.20600
C2627       C  0.72744458  0.85301014  0.10845653    -0.10200
C2628       C  0.74660935  0.88375997  0.11143111    -0.10800
C2629       C  0.75194799  0.90561599  0.10208440    -0.03700
C2630       C  0.73809827  0.89696485  0.09010488    -0.18800
H2631       H  0.63952571  0.87907638  0.03432683     0.10300
H2632       H  0.66136921  0.89144424  0.05576082     0.10400
H2633       H  0.69996830  0.83460921  0.04978577     0.10000
H2634       H  0.67798107  0.82199456  0.02851007     0.11100
H2635       H  0.69920068  0.89406483  0.07124628     0.11200
H2636       H  0.69807869  0.83379210  0.07132498     0.13100
H2637       H  0.69925672  0.82051905  0.09433493     0.09600
H2638       H  0.72297133  0.83561288  0.11542627     0.11700
H2639       H  0.76658884  0.92948775  0.10406759     0.08300
H2640       H  0.74301641  0.91437412  0.08309081     0.11100
C2641       C  0.23538191  0.35774674  0.15981640    -0.03500
C2642       C  0.24459596  0.35709822  0.17236920    -0.06100
C2643       C  0.27544705  0.37337350  0.17560198    -0.21200
C2644       C  0.29754881  0.39091592  0.16640115     0.24500
C2645       C  0.28794224  0.39315448  0.15404851    -0.18800
C2646       C  0.25718380  0.37649782  0.15078283    -0.08700
C2647       C  0.33013236  0.40245851  0.16933313    -0.19000
C2648       C  0.35340926  0.42540690  0.16297623    -0.23800
C2649       C  0.38533731  0.43220773  0.16397702     0.26600
C2650       C  0.40939104  0.46147077  0.16119329    -0.20600
C2651       C  0.43935380  0.46749242  0.16051835    -0.10200
C2652       C  0.44573265  0.44412922  0.16227869    -0.10800
C2653       C  0.42175642  0.41502985  0.16533053    -0.03700
C2654       C  0.39197397  0.40915394  0.16624491    -0.18800
H2655       H  0.22825587  0.34211074  0.17937801     0.10300
H2656       H  0.28221134  0.37096206  0.18513423     0.10400
H2657       H  0.30420522  0.40575499  0.14659589     0.10000
H2658       H  0.25059502  0.37666010  0.14095227     0.11100
H2659       H  0.33501532  0.39060432  0.17668880     0.11200
H2660       H  0.34894904  0.43920589  0.15649051     0.13100
H2661       H  0.40489359  0.47956208  0.15926034     0.09600
H2662       H  0.45732456  0.49008479  0.15805123     0.11700
H2663       H  0.42593767  0.39654853  0.16672413     0.08300
H2664       H  0.37405128  0.38615985  0.16807728     0.11100
C2665       C  0.19721440  0.03696888  0.16510525    -0.03500
C2666       C  0.17360799  0.03561148  0.15771932    -0.06100
C2667       C  0.16945061  0.06042623  0.15696319    -0.21200
C2668       C  0.18880374  0.08738176  0.16347870     0.24500
C2669       C  0.21340778  0.08938504  0.17037554    -0.18800
C2670       C  0.21758228  0.06443161  0.17114334    -0.08700
C2671       C  0.18099082  0.11169506  0.16348359    -0.19000
C2672       C  0.20016462  0.14072018  0.16677175    -0.23800
C2673       C  0.19120368  0.16414647  0.16637069     0.26600
C2674       C  0.21315417  0.19403435  0.16331991    -0.20600
C2675       C  0.20525635  0.21634238  0.16224347    -0.10200
C2676       C  0.17526930  0.20941828  0.16445332    -0.10800
C2677       C  0.15352118  0.17974499  0.16806323    -0.03700
C2678       C  0.16137016  0.15731592  0.16898599    -0.18800
H2679       H  0.15748189  0.01490503  0.15290829     0.10300
H2680       H  0.15040778  0.05821497  0.15153851     0.10400
H2681       H  0.22865495  0.10954761  0.17568564     0.10000
H2682       H  0.23586521  0.06620101  0.17698659     0.11100
H2683       H  0.15840426  0.10542044  0.16021469     0.11200
H2684       H  0.22363939  0.14816275  0.16895483     0.13100
H2685       H  0.23634472  0.19997440  0.16141364     0.09600
H2686       H  0.22263634  0.23899908  0.15952842     0.11700
H2687       H  0.13027198  0.17368268  0.16989011     0.08300
H2688       H  0.14407385  0.13469445  0.17176543     0.11100
C2689       C  0.04085763  0.20029459  0.15626471    -0.03500
C2690       C  0.04427830  0.17509992  0.15423822    -0.06100
C2691       C  0.01894511  0.14610897  0.15314757    -0.21200
C2692       C  0.98952759  0.14142307  0.15414643     0.24500
C2693       C  0.98599438  0.16683058  0.15532782    -0.18800
C2694       C  0.01143626  0.19595931  0.15638370    -0.08700
C2695       C  0.96366093  0.10963613  0.15438658    -0.19000
C2696       C  0.93563591  0.10118067  0.15871424    -0.23800
C2697       C  0.91131120  0.06893646  0.15989559     0.26600
C2698       C  0.88098641  0.06124738  0.15849532    -0.20600
C2699       C  0.85761411  0.03105604  0.15924938    -0.10200
C2700       C  0.86403912  0.00790972  0.16166780    -0.10800
C2701       C  0.89429091  0.01574459  0.16367568    -0.03700
C2702       C  0.91771520  0.04594045  0.16276998    -0.18800
H2703       H  0.06658342  0.17756623  0.15404079     0.10300
H2704       H  0.02241394  0.12708027  0.15206732     0.10400
H2705       H  0.96379516  0.16446267  0.15569664     0.10000
H2706       H  0.00799690  0.21488189  0.15790130     0.11100
H2707       H  0.96845408  0.09220116  0.15142278     0.11200
H2708       H  0.92992968  0.11806144  0.16144839     0.13100
H2709       H  0.87542013  0.07857615  0.15649031     0.09600
H2710       H  0.83450766  0.02578879  0.15772797     0.11700
H2711       H  0.89994994  0.99845129  0.16558536     0.08300
H2712       H  0.94076353  0.05119465  0.16438858     0.11100
C2713       C  0.10059428  0.36226544  0.15292778    -0.03500
C2714       C  0.07029266  0.35300085  0.15002751    -0.06100
C2715       C  0.06147904  0.37408805  0.14749146    -0.21200
C2716       C  0.08244583  0.40520977  0.14801142     0.24500
C2717       C  0.11306341  0.41482440  0.15066104    -0.18800
C2718       C  0.12209369  0.39345739  0.15300247    -0.08700
C2719       C  0.07059732  0.42612434  0.14594092    -0.19000
C2720       C  0.08270841  0.45407854  0.15102852    -0.23800
C2721       C  0.06552660  0.47052005  0.15160310     0.26600
C2722       C  0.07030330  0.48974951  0.16202921    -0.20600
C2723       C  0.05083699  0.50103212  0.16425222    -0.10200
C2724       C  0.02647450  0.49363855  0.15598692    -0.10800
C2725       C  0.02298343  0.47635007  0.14504444    -0.03700
C2726       C  0.04256351  0.46525039  0.14275364    -0.18800
H2727       H  0.05312658  0.32921324  0.14977543     0.10300
H2728       H  0.03781881  0.36593904  0.14542978     0.10400
H2729       H  0.12997226  0.43866074  0.15091820     0.10000
H2730       H  0.14561213  0.40129599  0.15519581     0.11100
H2731       H  0.04850245  0.41621467  0.14142967     0.11200
H2732       H  0.10351486  0.46316113  0.15652033     0.13100
H2733       H  0.08783845  0.49436519  0.16896452     0.09600
H2734       H  0.05349097  0.51372760  0.17291731     0.11700
H2735       H  0.00406828  0.47004308  0.13864183     0.08300
H2736       H  0.03877938  0.45150945  0.13434017     0.11100
C2737       C  0.24849111  0.50220354  0.93763619    -0.03500
C2738       C  0.24368834  0.48563971  0.92636867    -0.06100
C2739       C  0.23856703  0.49605771  0.91482863    -0.21200
C2740       C  0.23744929  0.52287151  0.91439435     0.24500
C2741       C  0.24518751  0.54088848  0.92548847    -0.18800
C2742       C  0.25070761  0.53058098  0.93700429    -0.08700
C2743       C  0.22328897  0.52804863  0.90296306    -0.19000
C2744       C  0.21890764  0.55163784  0.90129743    -0.23800
C2745       C  0.19791836  0.55080918  0.89129237     0.26600
C2746       C  0.20489570  0.57682190  0.88421934    -0.20600
C2747       C  0.18575314  0.57537157  0.87428296    -0.10200
C2748       C  0.15910074  0.54794243  0.87143745    -0.10800
C2749       C  0.15117366  0.52261401  0.87921753    -0.03700
C2750       C  0.17034803  0.52400319  0.88897686    -0.18800
H2751       H  0.24116299  0.46337464  0.92671439     0.10300
H2752       H  0.23284062  0.48174407  0.90645379     0.10400
H2753       H  0.24465090  0.56165471  0.92567106     0.10000
H2754       H  0.25354067  0.54330142  0.94568557     0.11100
H2755       H  0.21344776  0.50988350  0.89595644     0.11200
H2756       H  0.23001831  0.57144258  0.90737644     0.13100
H2757       H  0.22576441  0.59789253  0.88602465     0.09600
H2758       H  0.19256595  0.59524394  0.86844804     0.11700
H2759       H  0.13062342  0.50121895  0.87744614     0.08300
H2760       H  0.16373995  0.50390769  0.89463162     0.11100
C2761       C  0.25985135  0.38191564  0.98405418    -0.03500
C2762       C  0.24570096  0.35335626  0.98990184    -0.06100
C2763       C  0.25743006  0.33407885  0.98821409    -0.21200
C2764       C  0.28350377  0.34315017  0.98070825     0.24500
C2765       C  0.29570931  0.37060791  0.97390609    -0.18800
C2766       C  0.28430371  0.38995450  0.97574567    -0.08700
C2767       C  0.29897563  0.32504529  0.98103179    -0.19000
C2768       C  0.32931923  0.33828184  0.97966384    -0.23800
C2769       C  0.34760694  0.32361343  0.98206869     0.26600
C2770       C  0.37851234  0.34278223  0.98463231    -0.20600
C2771       C  0.39715893  0.33110827  0.98736903    -0.10200
C2772       C  0.38568660  0.29974023  0.98749456    -0.10800
C2773       C  0.35487527  0.28023692  0.98452179    -0.03700
C2774       C  0.33587083  0.29207699  0.98189460    -0.18800
H2775       H  0.22707011  0.34693704  0.99650019     0.10300
H2776       H  0.24732022  0.31293902  0.99344203     0.10400
H2777       H  0.31486446  0.37786994  0.96754530     0.10000
H2778       H  0.29556066  0.41194852  0.97116430     0.11100
H2779       H  0.28582921  0.30150295  0.98392134     0.11200
H2780       H  0.34232809  0.36245943  0.97790241     0.13100
H2781       H  0.38832165  0.36711440  0.98476115     0.09600
H2782       H  0.42078715  0.34691065  0.98948025     0.11700
H2783       H  0.34539407  0.25597055  0.98451149     0.08300
H2784       H  0.31224494  0.27661251  0.97971286     0.11100
C2785       C  0.24652575  0.73180669  0.98549478    -0.03500
C2786       C  0.26650995  0.72932053  0.97701859    -0.06100
C2787       C  0.26517560  0.70155497  0.97539060    -0.21200
C2788       C  0.24374588  0.67571973  0.98210496     0.24500
C2789       C  0.22374611  0.67825350  0.99053870    -0.18800
C2790       C  0.22503274  0.70584936  0.99214915    -0.08700
C2791       C  0.24385968  0.64693982  0.98069707    -0.19000
C2792       C  0.21944516  0.61959922  0.98323770    -0.23800
C2793       C  0.21962862  0.59081231  0.98242174     0.26600
C2794       C  0.19216587  0.56380140  0.98027784    -0.20600
C2795       C  0.19140545  0.53625806  0.97931283    -0.10200
C2796       C  0.21810726  0.53507125  0.98066060    -0.10800
C2797       C  0.24544089  0.56201072  0.98329644    -0.03700
C2798       C  0.24621357  0.58957922  0.98417115    -0.18800
H2799       H  0.28343301  0.74887497  0.97178549     0.10300
H2800       H  0.28103645  0.70028051  0.96892110     0.10400
H2801       H  0.20761999  0.65926126  0.99624487     0.10000
H2802       H  0.20946344  0.70690221  0.99885886     0.11100
H2803       H  0.26450397  0.64838876  0.97715734     0.11200
H2804       H  0.19793780  0.61788581  0.98551246     0.13100
H2805       H  0.17129953  0.56409573  0.97907471     0.09600
H2806       H  0.16997609  0.51598625  0.97725864     0.11700
H2807       H  0.26645650  0.56196192  0.98436983     0.08300
H2808       H  0.26761684  0.60977987  0.98628198     0.11100
C2809       C  0.54221943  0.71473380  0.98596359    -0.03500
C2810       C  0.51715627  0.71750937  0.98935944    -0.06100
C2811       C  0.48820219  0.69199096  0.99031099    -0.21200
C2812       C  0.48336152  0.66297773  0.98783597     0.24500
C2813       C  0.50873353  0.65999351  0.98510979    -0.18800
C2814       C  0.53782901  0.68562655  0.98420754    -0.08700
C2815       C  0.45140955  0.63711768  0.98778571    -0.19000
C2816       C  0.44277318  0.60856412  0.98430142    -0.23800
C2817       C  0.41047115  0.58386951  0.98396261     0.26600
C2818       C  0.40347909  0.55411572  0.98630653    -0.20600
C2819       C  0.37340322  0.53028902  0.98616166    -0.10200
C2820       C  0.34958640  0.53557795  0.98340251    -0.10800
C2821       C  0.35661990  0.56526194  0.98067736    -0.03700
C2822       C  0.38675084  0.58920217  0.98098413    -0.18800
H2823       H  0.51968494  0.73958962  0.99077550     0.10300
H2824       H  0.46928991  0.69510363  0.99254736     0.10400
H2825       H  0.50645156  0.63821246  0.98333456     0.10000
H2826       H  0.55660810  0.68272786  0.98146639     0.11100
H2827       H  0.43397924  0.64209362  0.99061445     0.11200
H2828       H  0.45955380  0.60242409  0.98195293     0.13100
H2829       H  0.42133115  0.54935547  0.98847996     0.09600
H2830       H  0.36880685  0.50767843  0.98826636     0.11700
H2831       H  0.33879580  0.57005960  0.97851939     0.08300
H2832       H  0.39140306  0.61174558  0.97873388     0.11100
C2833       C  0.11914572  0.37980540  0.98825561    -0.03500
C2834       C  0.09851019  0.39009563  0.98712342    -0.06100
C2835       C  0.06806037  0.37147190  0.99016904    -0.21200
C2836       C  0.05686051  0.34171598  0.99433269     0.24500
C2837       C  0.07721043  0.33096130  0.99552753    -0.18800
C2838       C  0.10823584  0.34999097  0.99256680    -0.08700
C2839       C  0.02400694  0.32394222  0.99759673    -0.19000
C2840       C  0.00644739  0.29351769  0.99796698    -0.23800
C2841       C  0.97281396  0.27889447  0.99940970     0.26600
C2842       C  0.95338737  0.25230452  0.99260571    -0.20600
C2843       C  0.92225368  0.24213738  0.99163338    -0.10200
C2844       C  0.91028632  0.25852704  0.99744845    -0.10800
C2845       C  0.92911916  0.28323414  0.00526633    -0.03700
C2846       C  0.95989737  0.29299455  0.00642714    -0.18800
H2847       H  0.10586486  0.41287397  0.98392728     0.10300
H2848       H  0.05306523  0.38048557  0.98919136     0.10400
H2849       H  0.06938798  0.30823912  0.99890708     0.10000
H2850       H  0.12356574  0.34141276  0.99358733     0.11100
H2851       H  0.01300577  0.33717533  0.99866629     0.11200
H2852       H  0.01612465  0.27952156  0.99571008     0.13100
H2853       H  0.96262087  0.24070904  0.98727512     0.09600
H2854       H  0.90813936  0.22308597  0.98549153     0.11700
H2855       H  0.92030183  0.29603652  0.00993528     0.08300
H2856       H  0.97383091  0.31263625  0.01229408     0.11100
C2857       C  0.16772737  0.32780219  0.11338412    -0.03500
C2858       C  0.17015545  0.35622419  0.11210855    -0.06100
C2859       C  0.17729374  0.37097144  0.10028675    -0.21200
C2860       C  0.18152705  0.35739516  0.08945827     0.24500
C2861       C  0.17853176  0.32870882  0.09065485    -0.18800
C2862       C  0.17177339  0.31411666  0.10250456    -0.08700
C2863       C  0.19094337  0.37450682  0.07727081    -0.19000
C2864       C  0.18412018  0.36103743  0.06573708    -0.23800
C2865       C  0.19459631  0.37830893  0.05360836     0.26600
C2866       C  0.17684800  0.36652409  0.04257471    -0.20600
C2867       C  0.18671041  0.38169056  0.03088321    -0.10200
C2868       C  0.21491662  0.40863668  0.02994252    -0.10800
C2869       C  0.23269998  0.42041148  0.04100993    -0.03700
C2870       C  0.22262491  0.40547089  0.05272952    -0.18800
H2871       H  0.16741794  0.36749497  0.12032032     0.10300
H2872       H  0.17973202  0.39316697  0.09960897     0.10400
H2873       H  0.18242037  0.31793799  0.08256836     0.10000
H2874       H  0.17018198  0.29229733  0.10317946     0.11100
H2875       H  0.20299896  0.39903682  0.07784354     0.11200
H2876       H  0.16942333  0.33665525  0.06510136     0.13100
H2877       H  0.15530827  0.34548834  0.04300473     0.09600
H2878       H  0.17260801  0.37187286  0.02251112     0.11700
H2879       H  0.25458763  0.44104238  0.04059184     0.08300
H2880       H  0.23723513  0.41474992  0.06098816     0.11100
C2881       C  0.51205799  0.24828696  0.54349218    -0.03500
C2882       C  0.54283633  0.25724392  0.54212669    -0.06100
C2883       C  0.55885039  0.25439818  0.55238669    -0.21200
C2884       C  0.54451046  0.24340958  0.56425255     0.24500
C2885       C  0.51462204  0.23702632  0.56590196    -0.18800
C2886       C  0.49831739  0.23882533  0.55554852    -0.08700
C2887       C  0.55906159  0.23593744  0.57474821    -0.19000
C2888       C  0.57035370  0.21756239  0.57283680    -0.23800
C2889       C  0.57583135  0.20219979  0.58365935     0.26600
C2890       C  0.56474001  0.17099474  0.58286222    -0.20600
C2891       C  0.56428372  0.15473605  0.59368936    -0.10200
C2892       C  0.57590192  0.16960580  0.60539473    -0.10800
C2893       C  0.58970616  0.20128071  0.60585086    -0.03700
C2894       C  0.58934594  0.21742199  0.59511275    -0.18800
H2895       H  0.55369989  0.26391264  0.53284377     0.10300
H2896       H  0.58198045  0.25964781  0.55093628     0.10400
H2897       H  0.50316995  0.22850535  0.57497730     0.10000
H2898       H  0.47448115  0.23122939  0.55676590     0.11100
H2899       H  0.55534237  0.24083862  0.58447066     0.11200
H2900       H  0.57046499  0.20962190  0.56320747     0.13100
H2901       H  0.55436628  0.15882360  0.57410902     0.09600
H2902       H  0.55336247  0.13033193  0.59310252     0.11700
H2903       H  0.59848047  0.21325852  0.61479173     0.08300
H2904       H  0.59846986  0.24156810  0.59590697     0.11100
C2905       C  0.39138772  0.26861078  0.50401484    -0.03500
C2906       C  0.40243680  0.29383516  0.51209187    -0.06100
C2907       C  0.38510379  0.30717705  0.51461185    -0.21200
C2908       C  0.35649132  0.29593370  0.50896347     0.24500
C2909       C  0.34427593  0.26900413  0.50175013    -0.18800
C2910       C  0.36163484  0.25536999  0.49935489    -0.08700
C2911       C  0.34301003  0.31570013  0.50934834    -0.19000
C2912       C  0.31680435  0.30965640  0.50376874    -0.23800
C2913       C  0.30979875  0.33408030  0.50161926     0.26600
C2914       C  0.27989748  0.32817735  0.50247477    -0.20600
C2915       C  0.27335757  0.35115231  0.49997596    -0.10200
C2916       C  0.29658576  0.38019356  0.49628881    -0.10800
C2917       C  0.32637281  0.38578245  0.49528041    -0.03700
C2918       C  0.33289228  0.36308341  0.49791457    -0.18800
H2919       H  0.42543794  0.30456469  0.51570402     0.10300
H2920       H  0.39510996  0.32774906  0.52024120     0.10400
H2921       H  0.32235382  0.25948336  0.49721752     0.10000
H2922       H  0.35288782  0.23619834  0.49292357     0.11100
H2923       H  0.35696981  0.33797982  0.51356748     0.11200
H2924       H  0.30087389  0.28722417  0.50022415     0.13100
H2925       H  0.26167927  0.30586475  0.50513758     0.09600
H2926       H  0.25014299  0.34609505  0.50075793     0.11700
H2927       H  0.34479299  0.40775915  0.49236793     0.08300
H2928       H  0.35601451  0.36809684  0.49673566     0.11100
C2929       C  0.37869750  0.12449386  0.49572599    -0.03500
C2930       C  0.34767221  0.11501056  0.49590556    -0.06100
C2931       C  0.32573381  0.08428957  0.49442363    -0.21200
C2932       C  0.33439973  0.06264860  0.49237895     0.24500
C2933       C  0.36551795  0.07238218  0.49190375    -0.18800
C2934       C  0.38732851  0.10286114  0.49360293    -0.08700
C2935       C  0.31094485  0.02984445  0.49187842    -0.19000
C2936       C  0.31514200  0.00980651  0.48515727    -0.23800
C2937       C  0.29613855  0.97614238  0.48612590     0.26600
C2938       C  0.30648923  0.95904959  0.47968971    -0.20600
C2939       C  0.29306538  0.92800521  0.48181214    -0.10200
C2940       C  0.26852680  0.91307520  0.49023515    -0.10800
C2941       C  0.25657440  0.92945149  0.49604538    -0.03700
C2942       C  0.27026224  0.96079877  0.49402978    -0.18800
H2943       H  0.34038853  0.13116367  0.49763602     0.10300
H2944       H  0.30194158  0.07735237  0.49499305     0.10400
H2945       H  0.37316396  0.05635616  0.49074913     0.10000
H2946       H  0.41106668  0.10945398  0.49343641     0.11100
H2947       H  0.29053441  0.02235376  0.49748456     0.11200
H2948       H  0.33507557  0.01860526  0.47907287     0.13100
H2949       H  0.32625801  0.97004085  0.47354374     0.09600
H2950       H  0.30298904  0.91589199  0.47743176     0.11700
H2951       H  0.23805579  0.91843292  0.50281661     0.08300
H2952       H  0.26129084  0.97284951  0.49913986     0.11100
C2953       C  0.17234676  0.97397966  0.20894364    -0.03500
C2954       C  0.18319168  0.96625252  0.21972727    -0.06100
C2955       C  0.18700441  0.98127761  0.23130501    -0.21200
C2956       C  0.18067042  0.00482221  0.23232020     0.24500
C2957       C  0.16735208  0.01083810  0.22179128    -0.18800
C2958       C  0.16309443  0.99535552  0.21019711    -0.08700
C2959       C  0.19175446  0.02418810  0.24396896    -0.19000
C2960       C  0.19138542  0.04998314  0.24596389    -0.23800
C2961       C  0.20861972  0.07013770  0.25680518     0.26600
C2962       C  0.19579815  0.08295472  0.26464917    -0.20600
C2963       C  0.21109113  0.09922293  0.27568079    -0.10200
C2964       C  0.23969374  0.10335601  0.27884088    -0.10800
C2965       C  0.25336466  0.09258927  0.27030629    -0.03700
C2966       C  0.23800482  0.07611954  0.25949119    -0.18800
H2967       H  0.19078692  0.95008398  0.21893853     0.10300
H2968       H  0.19703465  0.97590607  0.23924469     0.10400
H2969       H  0.16180101  0.02851427  0.22215941     0.10000
H2970       H  0.15520019  0.00205536  0.20191559     0.11100
H2971       H  0.20312125  0.01791997  0.25106027     0.11200
H2972       H  0.17900963  0.05673341  0.23970786     0.13100
H2973       H  0.17333998  0.07902492  0.26261348     0.09600
H2974       H  0.19989334  0.10715768  0.28204004     0.11700
H2975       H  0.27550777  0.09561932  0.27227606     0.08300
H2976       H  0.24888101  0.06740255  0.25335503     0.11100
C2977       C  0.34618652  0.24655210  0.32509063    -0.03500
C2978       C  0.37452021  0.25859449  0.33108681    -0.06100
C2979       C  0.39505723  0.28984763  0.33085687    -0.21200
C2980       C  0.38794955  0.30937438  0.32433094     0.24500
C2981       C  0.36071847  0.29688355  0.31737620    -0.18800
C2982       C  0.33995975  0.26581371  0.31784840    -0.08700
C2983       C  0.40647833  0.34249768  0.32658347    -0.19000
C2984       C  0.40867525  0.36316401  0.31806730    -0.23800
C2985       C  0.42142999  0.39542866  0.32147808     0.26600
C2986       C  0.43891683  0.41806642  0.31252604    -0.20600
C2987       C  0.44862640  0.44842972  0.31513850    -0.10200
C2988       C  0.43992156  0.45641477  0.32653655    -0.10800
C2989       C  0.42250349  0.43377641  0.33551685    -0.03700
C2990       C  0.41365423  0.40360116  0.33308881    -0.18800
H2991       H  0.37963851  0.24428077  0.33689446     0.10300
H2992       H  0.41580955  0.29896723  0.33634677     0.10400
H2993       H  0.35422462  0.31127011  0.31244702     0.10000
H2994       H  0.31812999  0.25707794  0.31324277     0.11100
H2995       H  0.41744261  0.35006697  0.33583643     0.11200
H2996       H  0.40022830  0.35622476  0.30840221     0.13100
H2997       H  0.44480913  0.41217768  0.30345780     0.09600
H2998       H  0.46187380  0.46550142  0.30804358     0.11700
H2999       H  0.41553935  0.43943161  0.34437822     0.08300
H3000       H  0.39961806  0.38650332  0.34004007     0.11100
C3001       C  0.35951664  0.11814450  0.33371646    -0.03500
C3002       C  0.38974653  0.14140807  0.33558664    -0.06100
C3003       C  0.41285806  0.13447550  0.33725260    -0.21200
C3004       C  0.40598741  0.10421330  0.33739741     0.24500
C3005       C  0.37571729  0.08114769  0.33561336    -0.18800
C3006       C  0.35291174  0.08800637  0.33380750    -0.08700
C3007       C  0.43038065  0.09653800  0.33852583    -0.19000
C3008       C  0.42522545  0.07106628  0.34454919    -0.23800
C3009       C  0.44443561  0.05686675  0.34373512     0.26600
C3010       C  0.43413987  0.02936920  0.35023222    -0.20600
C3011       C  0.44699294  0.01148006  0.34788090    -0.10200
C3012       C  0.47094190  0.02086646  0.33914925    -0.10800
C3013       C  0.48311392  0.04949063  0.33341835    -0.03700
C3014       C  0.46988464  0.06734188  0.33562257    -0.18800
H3015       H  0.39560686  0.16486586  0.33540275     0.10300
H3016       H  0.43607642  0.15270037  0.33840926     0.10400
H3017       H  0.36965381  0.05765115  0.33520098     0.10000
H3018       H  0.32997556  0.06949750  0.33229262     0.11100
H3019       H  0.45196928  0.11133561  0.33393200     0.11200
H3020       H  0.40405827  0.05833596  0.34979893     0.13100
H3021       H  0.41467926  0.02064188  0.35654681     0.09600
H3022       H  0.43694348  0.98933975  0.35229000     0.11700
H3023       H  0.50114549  0.05689820  0.32642380     0.08300
H3024       H  0.47855519  0.08827760  0.33037749     0.11100
C3025       C  0.31373495  0.18428789  0.37235883    -0.03500
C3026       C  0.30980169  0.20460383  0.37998766    -0.06100
C3027       C  0.32162129  0.21162331  0.39236276    -0.21200
C3028       C  0.33748054  0.19841341  0.39751918     0.24500
C3029       C  0.34133519  0.17790954  0.38992645    -0.18800
C3030       C  0.32953880  0.17091760  0.37749915    -0.08700
C3031       C  0.35067855  0.20790633  0.41056748    -0.19000
C3032       C  0.36052482  0.19288276  0.41782009    -0.23800
C3033       C  0.37431451  0.20327698  0.43074010     0.26600
C3034       C  0.37548575  0.18239159  0.43904543    -0.20600
C3035       C  0.38936716  0.19144624  0.45104415    -0.10200
C3036       C  0.40278905  0.22178767  0.45498057    -0.10800
C3037       C  0.40137065  0.24265149  0.44671779    -0.03700
C3038       C  0.38744141  0.23359068  0.43474348    -0.18800
H3039       H  0.29785053  0.21542480  0.37635968     0.10300
H3040       H  0.31844876  0.22762204  0.39792660     0.10400
H3041       H  0.35399448  0.16771162  0.39335313     0.10000
H3042       H  0.33304701  0.15521713  0.37188067     0.11100
H3043       H  0.35132372  0.22780736  0.41446459     0.11200
H3044       H  0.35762133  0.17159479  0.41443604     0.13100
H3045       H  0.36577805  0.15896450  0.43620502     0.09600
H3046       H  0.39011906  0.17476196  0.45712303     0.11700
H3047       H  0.41152227  0.26621357  0.44940251     0.08300
H3048       H  0.38792571  0.25070943  0.42856706     0.11100
C3049       C  0.77478716  0.57600438  0.54170311    -0.03500
C3050       C  0.77900762  0.59053900  0.55353685    -0.06100
C3051       C  0.76198626  0.57442188  0.56421059    -0.21200
C3052       C  0.73963981  0.54376486  0.56314222     0.24500
C3053       C  0.73644297  0.52875143  0.55149188    -0.18800
C3054       C  0.75422666  0.54470561  0.54088881    -0.08700
C3055       C  0.71898527  0.52878827  0.57413413    -0.19000
C3056       C  0.68860911  0.51245247  0.57277526    -0.23800
C3057       C  0.66801668  0.50505450  0.58393944     0.26600
C3058       C  0.64365301  0.51026690  0.58314454    -0.20600
C3059       C  0.62718524  0.50873063  0.59411697    -0.10200
C3060       C  0.63405405  0.50074595  0.60593171    -0.10800
C3061       C  0.65689341  0.49331092  0.60655486    -0.03700
C3062       C  0.67388054  0.49559480  0.59565850    -0.18800
H3063       H  0.79437162  0.61471270  0.55434862     0.10300
H3064       H  0.76487710  0.58640089  0.57311289     0.10400
H3065       H  0.71958702  0.50500043  0.55049137     0.10000
H3066       H  0.75015039  0.53313186  0.53179867     0.11100
H3067       H  0.72850531  0.53551360  0.58367066     0.11200
H3068       H  0.67887221  0.50885289  0.56325414     0.13100
H3069       H  0.63875858  0.51761908  0.57421756     0.09600
H3070       H  0.61012776  0.51522493  0.59351867     0.11700
H3071       H  0.66297397  0.48778100  0.61565845     0.08300
H3072       H  0.69233051  0.49112398  0.59649264     0.11100
C3073       C  0.12343751  0.78505052  0.49932146    -0.03500
C3074       C  0.11677901  0.80839425  0.49832359    -0.06100
C3075       C  0.08684672  0.80217798  0.49985085    -0.21200
C3076       C  0.06320255  0.77272199  0.50271049     0.24500
C3077       C  0.07022433  0.74968173  0.50408426    -0.18800
C3078       C  0.09986088  0.75577694  0.50239933    -0.08700
C3079       C  0.03105448  0.76560243  0.50286843    -0.19000
C3080       C  0.00921940  0.74205508  0.50955601    -0.23800
C3081       C  0.97580340  0.72839661  0.50776695     0.26600
C3082       C  0.95654010  0.70213628  0.51479049    -0.20600
C3083       C  0.92574615  0.68459347  0.51182254    -0.10200
C3084       C  0.91324552  0.69325862  0.50195553    -0.10800
C3085       C  0.93171952  0.72074438  0.49558594    -0.03700
C3086       C  0.96281306  0.73814055  0.49839486    -0.18800
H3087       H  0.13443224  0.83112232  0.49584888     0.10300
H3088       H  0.08204326  0.82027339  0.49856768     0.10400
H3089       H  0.05266522  0.72650345  0.50584598     0.10000
H3090       H  0.10418553  0.73725894  0.50321305     0.11100
H3091       H  0.02540620  0.77922022  0.49685354     0.11200
H3092       H  0.01616905  0.73042035  0.51617822     0.13100
H3093       H  0.96570139  0.69401574  0.52207577     0.09600
H3094       H  0.91199628  0.66329204  0.51675353     0.11700
H3095       H  0.92265055  0.72750359  0.48773982     0.08300
H3096       H  0.97658319  0.75812322  0.49271390     0.11100
C3097       C  0.71445724  0.55089638  0.49915484    -0.03500
C3098       C  0.68790291  0.54693299  0.50497950    -0.06100
C3099       C  0.66093604  0.51894908  0.50446469    -0.21200
C3100       C  0.65992315  0.49421144  0.49825000     0.24500
C3101       C  0.68595963  0.49853209  0.49180451    -0.18800
C3102       C  0.71291744  0.52656657  0.49225611    -0.08700
C3103       C  0.63128861  0.46442332  0.49860285    -0.19000
C3104       C  0.63040336  0.43771016  0.49809928    -0.23800
C3105       C  0.60169912  0.40788196  0.49864879     0.26600
C3106       C  0.60260445  0.38213930  0.50254526    -0.20600
C3107       C  0.57622529  0.35352520  0.50261562    -0.10200
C3108       C  0.54840129  0.35001108  0.49862164    -0.10800
C3109       C  0.54749129  0.37585611  0.49485336    -0.03700
C3110       C  0.57375744  0.40437640  0.49482770    -0.18800
H3111       H  0.68821779  0.56506854  0.51040318     0.10300
H3112       H  0.64105267  0.51631543  0.50934547     0.10400
H3113       H  0.68566724  0.48026565  0.48650676     0.10000
H3114       H  0.73284591  0.52883130  0.48756531     0.11100
H3115       H  0.61048688  0.46469671  0.50020717     0.11200
H3116       H  0.65153280  0.43756134  0.49778828     0.13100
H3117       H  0.62384852  0.38414639  0.50546354     0.09600
H3118       H  0.57776772  0.33409099  0.50550971     0.11700
H3119       H  0.52650360  0.37402599  0.49166331     0.08300
H3120       H  0.57212332  0.42337801  0.49140825     0.11100
C3121       C  0.69553722  0.82567133  0.48438130    -0.03500
C3122       C  0.69020085  0.80395396  0.47498426    -0.06100
C3123       C  0.70986448  0.79267091  0.47358125    -0.21200
C3124       C  0.73461100  0.80202839  0.48186316     0.24500
C3125       C  0.74108838  0.82521726  0.49073187    -0.18800
C3126       C  0.72180118  0.83708942  0.49190823    -0.08700
C3127       C  0.75138271  0.78528498  0.48178539    -0.19000
C3128       C  0.75936267  0.77731527  0.49274058    -0.23800
C3129       C  0.76930259  0.75463752  0.49343634     0.26600
C3130       C  0.76020281  0.73525587  0.50405067    -0.20600
C3131       C  0.76775264  0.71272425  0.50499845    -0.10200
C3132       C  0.78544170  0.70954442  0.49554272    -0.10800
C3133       C  0.79564271  0.72962345  0.48510200    -0.03700
C3134       C  0.78729662  0.75177548  0.48396103    -0.18800
H3135       H  0.66982047  0.79444771  0.46922330     0.10300
H3136       H  0.70444256  0.77495779  0.46664192     0.10400
H3137       H  0.76032655  0.83327414  0.49710152     0.10000
H3138       H  0.72605425  0.85337348  0.49939525     0.11100
H3139       H  0.75294892  0.77546209  0.47281891     0.11200
H3140       H  0.75458218  0.78459273  0.50176178     0.13100
H3141       H  0.74649561  0.73705695  0.51151227     0.09600
H3142       H  0.75977768  0.69773055  0.51319495     0.11700
H3143       H  0.80931184  0.72763394  0.47768187     0.08300
H3144       H  0.79506241  0.76672122  0.47575957     0.11100
C3145       C  0.88909923  0.83874578  0.27736947    -0.03500
C3146       C  0.91468965  0.84906626  0.26943593    -0.06100
C3147       C  0.91648636  0.86381642  0.25784176    -0.21200
C3148       C  0.89310308  0.86906880  0.25413185     0.24500
C3149       C  0.86777359  0.85891586  0.26216776    -0.18800
C3150       C  0.86585395  0.84408656  0.27356788    -0.08700
C3151       C  0.89357519  0.88176314  0.24125899    -0.19000
C3152       C  0.87698623  0.89475985  0.23839108    -0.23800
C3153       C  0.86867931  0.89859005  0.22513883     0.26600
C3154       C  0.85402804  0.91526248  0.22321309    -0.20600
C3155       C  0.84079089  0.91468250  0.21137327    -0.10200
C3156       C  0.84154799  0.89694306  0.20133330    -0.10800
C3157       C  0.85751905  0.88160066  0.20305417    -0.03700
C3158       C  0.87096837  0.88243050  0.21475856    -0.18800
H3159       H  0.93300260  0.84537701  0.27208539     0.10300
H3160       H  0.93602748  0.87091284  0.25170691     0.10400
H3161       H  0.84869054  0.86130949  0.25950618     0.10000
H3162       H  0.84580641  0.83667904  0.27940840     0.11100
H3163       H  0.90644601  0.87845688  0.23384936     0.11200
H3164       H  0.86681036  0.90071454  0.24612281     0.13100
H3165       H  0.85168095  0.92772706  0.23105571     0.09600
H3166       H  0.82856652  0.92665715  0.21030350     0.11700
H3167       H  0.85871325  0.86797315  0.19541196     0.08300
H3168       H  0.88144697  0.86882331  0.21574821     0.11100
C3169       C  0.92199982  0.72256047  0.32492716    -0.03500
C3170       C  0.92649769  0.71717384  0.31218387    -0.06100
C3171       C  0.93926347  0.69919379  0.30936647    -0.21200
C3172       C  0.94706129  0.68568312  0.31921056     0.24500
C3173       C  0.94092324  0.68980885  0.33193265    -0.18800
C3174       C  0.92887217  0.70831770  0.33474444    -0.08700
C3175       C  0.96546278  0.67131959  0.31620721    -0.19000
C3176       C  0.96482917  0.64898283  0.32329961    -0.23800
C3177       C  0.98788119  0.63941332  0.32212533     0.26600
C3178       C  0.98047103  0.61000672  0.32576183    -0.20600
C3179       C  0.00300375  0.60206623  0.32663665    -0.10200
C3180       C  0.03354617  0.62371233  0.32425504    -0.10800
C3181       C  0.04071260  0.65274474  0.32018667    -0.03700
C3182       C  0.01821287  0.66043797  0.31903100    -0.18800
H3183       H  0.92214646  0.72855345  0.30447694     0.10300
H3184       H  0.94415014  0.69677599  0.29950001     0.10400
H3185       H  0.94737032  0.68050673  0.33978157     0.10000
H3186       H  0.92629021  0.71275331  0.34465928     0.11100
H3187       H  0.98090878  0.68033891  0.30812800     0.11200
H3188       H  0.94750945  0.63804895  0.33061902     0.13100
H3189       H  0.95733931  0.59342897  0.32831744     0.09600
H3190       H  0.99682771  0.57963163  0.32990848     0.11700
H3191       H  0.06405437  0.66995229  0.31830974     0.08300
H3192       H  0.02499366  0.68346292  0.31647841     0.11100
C3193       C  0.78143601  0.71301363  0.33229652    -0.03500
C3194       C  0.77297136  0.68244483  0.33108888    -0.06100
C3195       C  0.74264036  0.65950226  0.33289870    -0.21200
C3196       C  0.72037112  0.66660314  0.33628761     0.24500
C3197       C  0.72925948  0.69720779  0.33805614    -0.18800
C3198       C  0.75933762  0.72005424  0.33602853    -0.08700
C3199       C  0.68770444  0.64232559  0.33641888    -0.19000
C3200       C  0.66657801  0.64437021  0.34338681    -0.23800
C3201       C  0.63299106  0.62510343  0.34163753     0.26600
C3202       C  0.61453283  0.63361483  0.34822247    -0.20600
C3203       C  0.58389389  0.62086848  0.34512982    -0.10200
C3204       C  0.57072557  0.59880092  0.33554460    -0.10800
C3205       C  0.58819410  0.58799441  0.32979468    -0.03700
C3206       C  0.61913983  0.60110902  0.33275379    -0.18800
H3207       H  0.78944836  0.67636113  0.32811050     0.10300
H3208       H  0.73639127  0.63617532  0.33133349     0.10400
H3209       H  0.71278451  0.70380031  0.34030641     0.10000
H3210       H  0.76515533  0.74341022  0.33702411     0.11100
H3211       H  0.68111430  0.62326407  0.33009359     0.11200
H3212       H  0.67429931  0.66290707  0.35015024     0.13100
H3213       H  0.62428786  0.65173071  0.35519420     0.09600
H3214       H  0.57089156  0.62963685  0.34966946     0.11700
H3215       H  0.57859688  0.57123041  0.32225808     0.08300
H3216       H  0.63215720  0.59335409  0.32755834     0.11100
C3217       C  0.89051978  0.76422767  0.37020360    -0.03500
C3218       C  0.86045739  0.74359078  0.37381155    -0.06100
C3219       C  0.85349786  0.73347897  0.38643857    -0.21200
C3220       C  0.87637700  0.74350987  0.39572415     0.24500
C3221       C  0.90639386  0.76471455  0.39218965    -0.18800
C3222       C  0.91335721  0.77485721  0.37956551    -0.08700
C3223       C  0.86785357  0.73137737  0.40893163    -0.19000
C3224       C  0.88766713  0.73156426  0.41744922    -0.23800
C3225       C  0.87858208  0.71702713  0.43023230     0.26600
C3226       C  0.89740852  0.70832135  0.43626517    -0.20600
C3227       C  0.88901347  0.69299081  0.44792839    -0.10200
C3228       C  0.86165342  0.68624351  0.45390741    -0.10800
C3229       C  0.84344589  0.69619994  0.44818115    -0.03700
C3230       C  0.85181651  0.71147592  0.43646541    -0.18800
H3231       H  0.84226613  0.73511846  0.36687209     0.10300
H3232       H  0.83015647  0.71739193  0.38892151     0.10400
H3233       H  0.92459516  0.77384833  0.39910291     0.10000
H3234       H  0.93672808  0.79093143  0.37713841     0.11100
H3235       H  0.84392971  0.71997098  0.41133486     0.11200
H3236       H  0.91111956  0.74051465  0.41466342     0.13100
H3237       H  0.91835961  0.71271402  0.43178030     0.09600
H3238       H  0.90381468  0.68605017  0.45216928     0.11700
H3239       H  0.82242621  0.69168532  0.45262554     0.08300
H3240       H  0.83725605  0.71885072  0.43238137     0.11100
C3241       C  0.20338588  0.04390742  0.32292366    -0.03500
C3242       C  0.20388108  0.01706049  0.32086074    -0.06100
C3243       C  0.17694513  0.98897380  0.32107123    -0.21200
C3244       C  0.14901284  0.98722625  0.32313363     0.24500
C3245       C  0.14871057  0.01385396  0.32596411    -0.18800
C3246       C  0.17557219  0.04185035  0.32585274    -0.08700
C3247       C  0.12050220  0.95751379  0.32216025    -0.19000
C3248       C  0.09460019  0.95504088  0.31772462    -0.23800
C3249       C  0.06489311  0.92631699  0.31670385     0.26600
C3250       C  0.04013510  0.92775851  0.31177230    -0.20600
C3251       C  0.01116970  0.90208120  0.31143175    -0.10200
C3252       C  0.00622365  0.87423327  0.31603464    -0.10800
C3253       C  0.03111287  0.87244056  0.32056532    -0.03700
C3254       C  0.06013175  0.89814760  0.32090607    -0.18800
H3255       H  0.22491373  0.01780261  0.31863255     0.10300
H3256       H  0.17778483  0.96869089  0.31908967     0.10400
H3257       H  0.12768856  0.01318041  0.32811664     0.10000
H3258       H  0.17431328  0.06199603  0.32757798     0.11100
H3259       H  0.12163332  0.93759343  0.32456573     0.11200
H3260       H  0.09508237  0.97545514  0.31458516     0.13100
H3261       H  0.04303837  0.94906399  0.30844315     0.09600
H3262       H  0.99248168  0.90430644  0.30794555     0.11700
H3263       H  0.02804317  0.85130190  0.32419894     0.08300
H3264       H  0.07831419  0.89570249  0.32476871     0.11100
C3265       C  0.97492049  0.18322776  0.27779762    -0.03500
C3266       C  0.96114319  0.15667128  0.27039993    -0.06100
C3267       C  0.97469091  0.15514602  0.25894604    -0.21200
C3268       C  0.00248868  0.17982955  0.25486337     0.24500
C3269       C  0.01601670  0.20634072  0.26224172    -0.18800
C3270       C  0.00248481  0.20797343  0.27351932    -0.08700
C3271       C  0.01562759  0.17885266  0.24231824    -0.19000
C3272       C  0.04549453  0.19634106  0.23964661    -0.23800
C3273       C  0.05820636  0.20301680  0.22646255     0.26600
C3274       C  0.08988189  0.21783295  0.22474376    -0.20600
C3275       C  0.10299947  0.23005117  0.21281379    -0.10200
C3276       C  0.08452696  0.22798363  0.20252548    -0.10800
C3277       C  0.05287688  0.21140829  0.20402304    -0.03700
C3278       C  0.03983124  0.19910614  0.21581892    -0.18800
H3279       H  0.93989899  0.13725424  0.27340138     0.10300
H3280       H  0.96348788  0.13467737  0.25326763     0.10400
H3281       H  0.03669711  0.22630564  0.25917379     0.10000
H3282       H  0.01385587  0.22887732  0.27890485     0.11100
H3283       H  0.99995408  0.16437610  0.23500498     0.11200
H3284       H  0.06123882  0.20827032  0.24738708     0.13100
H3285       H  0.10457713  0.22131034  0.23280393     0.09600
H3286       H  0.12746010  0.24280491  0.21187792     0.11700
H3287       H  0.03813648  0.20930084  0.19616472     0.08300
H3288       H  0.01548502  0.18847518  0.21665383     0.11100
C3289       C  0.61546549  0.03743944  0.33261582    -0.03500
C3290       C  0.63715032  0.04075643  0.34168519    -0.06100
C3291       C  0.66734438  0.06392969  0.34054304    -0.21200
C3292       C  0.67688116  0.08378392  0.33008680     0.24500
C3293       C  0.65520343  0.08080315  0.32101649    -0.18800
C3294       C  0.62460352  0.05801244  0.32237358    -0.08700
C3295       C  0.70968675  0.10684046  0.32900279    -0.19000
C3296       C  0.72491016  0.11446676  0.31781935    -0.23800
C3297       C  0.75865964  0.13078442  0.31743258     0.26600
C3298       C  0.77292740  0.12044781  0.30908133    -0.20600
C3299       C  0.80392600  0.13084618  0.31027879    -0.10200
C3300       C  0.82141779  0.15255338  0.31954850    -0.10800
C3301       C  0.80784658  0.16517391  0.32703757    -0.03700
C3302       C  0.77662102  0.15422258  0.32606013    -0.18800
H3303       H  0.63068503  0.02537650  0.34972536     0.10300
H3304       H  0.68353371  0.06581742  0.34768539     0.10400
H3305       H  0.66185574  0.09610161  0.31295057     0.10000
H3306       H  0.60829236  0.05592522  0.31525759     0.11100
H3307       H  0.72252520  0.11436143  0.33785560     0.11200
H3308       H  0.71265215  0.10429299  0.30902507     0.13100
H3309       H  0.75963065  0.10250970  0.30232779     0.09600
H3310       H  0.81384051  0.12044274  0.30456507     0.11700
H3311       H  0.82079557  0.18151972  0.33441369     0.08300
H3312       H  0.76628904  0.16300125  0.33246670     0.11100
C3313       C  0.95406163  0.28755639  0.33369189    -0.03500
C3314       C  0.98251760  0.30683622  0.33918602    -0.06100
C3315       C  0.99064877  0.33605311  0.34295144    -0.21200
C3316       C  0.97100600  0.34717856  0.34094356     0.24500
C3317       C  0.94206437  0.32775241  0.33577381    -0.18800
C3318       C  0.93348762  0.29792095  0.33233966    -0.08700
C3319       C  0.98285127  0.37963703  0.34378093    -0.19000
C3320       C  0.97860726  0.39823769  0.33607861    -0.23800
C3321       C  0.00053913  0.43151970  0.33587890     0.26600
C3322       C  0.99150550  0.45193894  0.33183993    -0.20600
C3323       C  0.01312573  0.48275310  0.32994167    -0.10200
C3324       C  0.04413814  0.49330505  0.33174129    -0.10800
C3325       C  0.05290614  0.47303715  0.33612048    -0.03700
C3326       C  0.03152265  0.44267762  0.33816974    -0.18800
H3327       H  0.99873546  0.29940409  0.34042847     0.10300
H3328       H  0.01302693  0.35053706  0.34693867     0.10400
H3329       H  0.92631168  0.33565721  0.33428591     0.10000
H3330       H  0.91138098  0.28343650  0.32813646     0.11100
H3331       H  0.00007200  0.38957016  0.35117769     0.11200
H3332       H  0.96125404  0.38883576  0.32872332     0.13100
H3333       H  0.96786737  0.44386613  0.32979347     0.09600
H3334       H  0.00585603  0.49783214  0.32633633     0.11700
H3335       H  0.07668822  0.48048344  0.33743033     0.08300
H3336       H  0.03971325  0.42768789  0.34078726     0.11100
C3337       C  0.88812159  0.06382149  0.31427125    -0.03500
C3338       C  0.85877052  0.03863019  0.31579539    -0.06100
C3339       C  0.85400139  0.00927688  0.31587845    -0.21200
C3340       C  0.87845211  0.00436034  0.31467387     0.24500
C3341       C  0.90764898  0.02939378  0.31249792    -0.18800
C3342       C  0.91239656  0.05882047  0.31226099    -0.08700
C3343       C  0.87251717  0.97286439  0.31570925    -0.19000
C3344       C  0.89296737  0.96613852  0.32036845    -0.23800
C3345       C  0.88753214  0.93477552  0.32162413     0.26600
C3346       C  0.91271199  0.93107082  0.32306563    -0.20600
C3347       C  0.90917516  0.90221578  0.32331813    -0.10200
C3348       C  0.88024219  0.87618524  0.32223268    -0.10800
C3349       C  0.85481313  0.87976609  0.32163868    -0.03700
C3350       C  0.85837120  0.90871548  0.32134970    -0.18800
H3351       H  0.83950110  0.04161502  0.31725564     0.10300
H3352       H  0.83122853  0.99038200  0.31734660     0.10400
H3353       H  0.92686980  0.02636050  0.31104385     0.10000
H3354       H  0.93523528  0.07770663  0.31096741     0.11100
H3355       H  0.85011937  0.95485306  0.31297902     0.11200
H3356       H  0.91513630  0.98452158  0.32320941     0.13100
H3357       H  0.93539549  0.95062813  0.32352469     0.09600
H3358       H  0.92930800  0.90036998  0.32384391     0.11700
H3359       H  0.83221643  0.86023031  0.32080613     0.08300
H3360       H  0.83819793  0.91037121  0.32074581     0.11100
C3361       C  0.18487241  0.16229861  0.32109235    -0.03500
C3362       C  0.15660022  0.13563234  0.31980608    -0.06100
C3363       C  0.12972723  0.13660262  0.32026641    -0.21200
C3364       C  0.13051534  0.16415965  0.32206215     0.24500
C3365       C  0.15889848  0.19093249  0.32291162    -0.18800
C3366       C  0.18566570  0.18995100  0.32250403    -0.08700
C3367       C  0.10142626  0.16420392  0.32253308    -0.19000
C3368       C  0.09845857  0.18654359  0.32789138    -0.23800
C3369       C  0.06981313  0.18742306  0.32760269     0.26600
C3370       C  0.07143732  0.21553734  0.32844481    -0.20600
C3371       C  0.04534047  0.21763224  0.32711235    -0.10200
C3372       C  0.01691629  0.19153425  0.32504672    -0.10800
C3373       C  0.01506927  0.16320887  0.32506205    -0.03700
C3374       C  0.04115525  0.16115151  0.32633437    -0.18800
H3375       H  0.15521193  0.11395946  0.31878791     0.10300
H3376       H  0.10820037  0.11566685  0.31943126     0.10400
H3377       H  0.16071833  0.21278631  0.32376634     0.10000
H3378       H  0.20708933  0.21096839  0.32339213     0.11100
H3379       H  0.08186000  0.14502100  0.31820501     0.11200
H3380       H  0.11799731  0.20574030  0.33222375     0.13100
H3381       H  0.09315950  0.23610986  0.32962356     0.09600
H3382       H  0.04764812  0.23980840  0.32718881     0.11700
H3383       H  0.99355549  0.14257254  0.32360254     0.08300
H3384       H  0.03870359  0.13894883  0.32618235     0.11100
C3385       C  0.83794914  0.30757187  0.54238020    -0.03500
C3386       C  0.85185113  0.30628424  0.55373973    -0.06100
C3387       C  0.85121638  0.32175000  0.56464015    -0.21200
C3388       C  0.83771296  0.33962810  0.56418062     0.24500
C3389       C  0.82231903  0.33957605  0.55308365    -0.18800
C3390       C  0.82204190  0.32325540  0.54231189    -0.08700
C3391       C  0.84294727  0.36064028  0.57483301    -0.19000
C3392       C  0.85717582  0.39067016  0.57278520    -0.23800
C3393       C  0.87161579  0.41227289  0.58343556     0.26600
C3394       C  0.85564159  0.41006013  0.59469107    -0.20600
C3395       C  0.87110192  0.42724959  0.60544135    -0.10200
C3396       C  0.90282249  0.44612883  0.60517253    -0.10800
C3397       C  0.91836758  0.44982539  0.59362290    -0.03700
C3398       C  0.90276356  0.43339167  0.58277116    -0.18800
H3399       H  0.86444115  0.29454739  0.55398708     0.10300
H3400       H  0.86321678  0.32158075  0.57313732     0.10400
H3401       H  0.81166248  0.35316389  0.55259136     0.10000
H3402       H  0.81153284  0.32494937  0.53361006     0.11100
H3403       H  0.84053980  0.35217316  0.58454842     0.11200
H3404       H  0.86320290  0.39923536  0.56306974     0.13100
H3405       H  0.83152311  0.39404386  0.59533257     0.09600
H3406       H  0.85865502  0.42371222  0.61427804     0.11700
H3407       H  0.94282127  0.46407168  0.59321050     0.08300
H3408       H  0.91542805  0.43541902  0.57414922     0.11100
C3409       C  0.81998404  0.17346208  0.49874862    -0.03500
C3410       C  0.83549105  0.16077467  0.49272299    -0.06100
C3411       C  0.82431426  0.12951666  0.49355110    -0.21200
C3412       C  0.79755211  0.11063094  0.50040236     0.24500
C3413       C  0.78442242  0.12410296  0.50769029    -0.18800
C3414       C  0.79531867  0.15509150  0.50675083    -0.08700
C3415       C  0.78205680  0.07708373  0.49885250    -0.19000
C3416       C  0.75149075  0.05995591  0.49874349    -0.23800
C3417       C  0.73333500  0.02707590  0.49568064     0.26600
C3418       C  0.70287818  0.01538033  0.49230384    -0.20600
C3419       C  0.68422981  0.98486149  0.48938660    -0.10200
C3420       C  0.69530074  0.96482022  0.48990358    -0.10800
C3421       C  0.72573624  0.97623121  0.49345627    -0.03700
C3422       C  0.74469983  0.00718072  0.49626318    -0.18800
H3423       H  0.85446271  0.17442212  0.48643767     0.10300
H3424       H  0.83521393  0.11981010  0.48803829     0.10400
H3425       H  0.76468467  0.11051451  0.51359710     0.10000
H3426       H  0.78316197  0.16438794  0.51161416     0.11100
H3427       H  0.79567059  0.06709642  0.49638745     0.11200
H3428       H  0.73853490  0.07119227  0.50005155     0.13100
H3429       H  0.69338309  0.03002099  0.49183036     0.09600
H3430       H  0.66089717  0.97693951  0.48678679     0.11700
H3431       H  0.73490598  0.96133212  0.49394958     0.08300
H3432       H  0.76793096  0.01526678  0.49902941     0.11100
C3433       C  0.53480568  0.21510159  0.49981960    -0.03500
C3434       C  0.53711060  0.19012298  0.50367736    -0.06100
C3435       C  0.56458527  0.19070470  0.50253482    -0.21200
C3436       C  0.59037925  0.21631210  0.49764105     0.24500
C3437       C  0.58762082  0.24050941  0.49299196    -0.18800
C3438       C  0.56012196  0.23991286  0.49409343    -0.08700
C3439       C  0.61965876  0.21691685  0.49763491    -0.19000
C3440       C  0.64687399  0.24268491  0.49796109    -0.23800
C3441       C  0.67626643  0.24336971  0.49836298     0.26600
C3442       C  0.70255533  0.27018522  0.50208489    -0.20600
C3443       C  0.73080436  0.27204956  0.50215328    -0.10200
C3444       C  0.73333434  0.24712163  0.49840110    -0.10800
C3445       C  0.70698949  0.22022968  0.49480799    -0.03700
C3446       C  0.67886661  0.21839023  0.49471244    -0.18800
H3447       H  0.51804259  0.17058831  0.50805810     0.10300
H3448       H  0.56599049  0.17153321  0.50595883     0.10400
H3449       H  0.60666870  0.26008272  0.48864780     0.10000
H3450       H  0.55908232  0.25943786  0.49089675     0.11100
H3451       H  0.61839569  0.19523677  0.49832208     0.11200
H3452       H  0.64781033  0.26426643  0.49849099     0.13100
H3453       H  0.70127741  0.28985758  0.50484644     0.09600
H3454       H  0.75071860  0.29320441  0.50484617     0.11700
H3455       H  0.70813623  0.20066193  0.49176303     0.08300
H3456       H  0.65955706  0.19757731  0.49138726     0.11100
C3457       C  0.83362015  0.53548194  0.49604572    -0.03500
C3458       C  0.80943195  0.50875798  0.50116388    -0.06100
C3459       C  0.81114083  0.48241013  0.50184962    -0.21200
C3460       C  0.83712023  0.48228110  0.49757355     0.24500
C3461       C  0.86127852  0.50904225  0.49243699    -0.18800
C3462       C  0.85955948  0.53527506  0.49173065    -0.08700
C3463       C  0.83766692  0.45359320  0.49809512    -0.19000
C3464       C  0.86339668  0.45240724  0.49774283    -0.23800
C3465       C  0.86385672  0.42368815  0.49811320     0.26600
C3466       C  0.89022989  0.42433563  0.50230399    -0.20600
C3467       C  0.89123219  0.39765594  0.50317523    -0.10200
C3468       C  0.86592509  0.36974394  0.49971848    -0.10800
C3469       C  0.83998675  0.36931663  0.49499381    -0.03700
C3470       C  0.83896352  0.39594767  0.49417092    -0.18800
H3471       H  0.78905054  0.50808658  0.50448590     0.10300
H3472       H  0.79206822  0.46202466  0.50572603     0.10400
H3473       H  0.88130160  0.50980039  0.48863807     0.10000
H3474       H  0.87858384  0.55539819  0.48766696     0.11100
H3475       H  0.81603007  0.43284381  0.49926948     0.11200
H3476       H  0.88519645  0.47323862  0.49782158     0.13100
H3477       H  0.90989525  0.44547489  0.50521210     0.09600
H3478       H  0.91158464  0.39882660  0.50683060     0.11700
H3479       H  0.82008150  0.34824653  0.49221290     0.08300
H3480       H  0.81864372  0.39460872  0.49041675     0.11100
C3481       C  0.16663675  0.39109796  0.48875391    -0.03500
C3482       C  0.15039237  0.36325985  0.49511621    -0.06100
C3483       C  0.11922111  0.34437594  0.49289936    -0.21200
C3484       C  0.10394113  0.35313804  0.48432059     0.24500
C3485       C  0.12108431  0.37965087  0.47705193    -0.18800
C3486       C  0.15199206  0.39867856  0.47943169    -0.08700
C3487       C  0.07010151  0.33591423  0.48402443    -0.19000
C3488       C  0.05414788  0.34958414  0.48134220    -0.23800
C3489       C  0.02094567  0.33578110  0.48331625     0.26600
C3490       C  0.00988299  0.35538875  0.48551794    -0.20600
C3491       C  0.97933336  0.34408970  0.48821017    -0.10200
C3492       C  0.95879003  0.31276593  0.48859019    -0.10800
C3493       C  0.96940870  0.29295087  0.48574748    -0.03700
C3494       C  0.00033713  0.30435528  0.48320758    -0.18800
H3495       H  0.16125476  0.35725101  0.50248475     0.10300
H3496       H  0.10668711  0.32392531  0.49851532     0.10400
H3497       H  0.11051892  0.38651415  0.46990627     0.10000
H3498       H  0.16418587  0.42012320  0.47444740     0.11100
H3499       H  0.05837997  0.31286966  0.48761433     0.11200
H3500       H  0.06635545  0.37346943  0.47895263     0.13100
H3501       H  0.02513826  0.37967633  0.48552197     0.09600
H3502       H  0.97187704  0.36002512  0.49017278     0.11700
H3503       H  0.95402059  0.26871067  0.48586251     0.08300
H3504       H  0.00799039  0.28862127  0.48120832     0.11100
C3505       C  0.85420679  0.23244622  0.45089455    -0.03500
C3506       C  0.88458446  0.24540251  0.44696881    -0.06100
C3507       C  0.89164250  0.23972486  0.43473239    -0.21200
C3508       C  0.86857253  0.22093085  0.42616686     0.24500
C3509       C  0.83816124  0.20811628  0.43007823    -0.18800
C3510       C  0.83111421  0.21364435  0.44231616    -0.08700
C3511       C  0.87703736  0.21612092  0.41312635    -0.19000
C3512       C  0.85851121  0.19236387  0.40569032    -0.23800
C3513       C  0.86672909  0.18727035  0.39267408     0.26600
C3514       C  0.85154545  0.15779054  0.38770080    -0.20600
C3515       C  0.85811697  0.15190065  0.37543282    -0.10200
C3516       C  0.87977841  0.17550341  0.36776181    -0.10800
C3517       C  0.89472441  0.20514796  0.37266799    -0.03700
C3518       C  0.88829945  0.21099793  0.38498741    -0.18800
H3519       H  0.90293232  0.26000599  0.45333464     0.10300
H3520       H  0.91524061  0.25006084  0.43194661     0.10400
H3521       H  0.81962507  0.19438358  0.42366631     0.10000
H3522       H  0.80746535  0.20360336  0.44495916     0.11100
H3523       H  0.89981070  0.23206060  0.40982252     0.11200
H3524       H  0.83686743  0.17490465  0.40946078     0.13100
H3525       H  0.83457857  0.13917136  0.39336203     0.09600
H3526       H  0.84594472  0.12887350  0.37190950     0.11700
H3527       H  0.91137511  0.22390632  0.36697373     0.08300
H3528       H  0.89980850  0.23416513  0.38830757     0.11100
loop_ 
_geom_bond_atom_site_label_1 
_geom_bond_atom_site_label_2 
_geom_bond_distance 
_geom_bond_site_symmetry_2 
_ccdc_geom_bond_type 
O1           Ni7   1.927       .  S
O1           C22   1.272       .  A
O2          Ni25   1.903       .  S
O2           C11   1.268       .  A
O3           Ni7   1.901       .  S
O3          Ni25   1.898       .  S
O3          Ni19   1.907       .  S
O3           H26   0.966       .  S
C4           O21   1.272       .  A
C4           O13   1.278       .  A
C4         C3505   1.483       .  S
O5          Ni24   1.931       .  S
O5           C11   1.273       .  A
O6          Ni24   1.896       .  S
O6            C8   1.267       .  A
Ni7          O10   1.919       .  S
Ni7          O12   1.917       .  S
C8           O18   1.279       .  A
C8         C3409   1.479       .  S
O9          Ni25   1.929       .  S
O9           C15   1.280       .  A
O10          C15   1.278       .  A
C11        C3444   1.481       .  S
O12          C14   1.269       .  A
O13         Ni24   1.938       .  S
C14          O20   1.268       .  A
C14        C3468   1.483       .  S
C15        C3385   1.475       .  S
H16          O17   0.966       .  S
O17         Ni25   1.914       .  S
O17         Ni19   1.910       .  S
O17         Ni24   1.898       .  S
O18         Ni19   1.957       .  S
Ni19         O23   1.918       .  S
Ni19         O21   1.903       .  S
O20         Ni25   1.914       .  S
C22          O23   1.271       .  A
C22        C3492   1.483       .  S
O27         Ni33   1.935       .  S
O27          C48   1.273       .  A
O28         Ni51   1.920       .  S
O28          C37   1.270       .  A
O29         Ni33   1.913       .  S
O29         Ni51   1.916       .  S
O29         Ni45   1.906       .  S
O29          H52   0.967       .  S
C30          O47   1.273       .  A
C30          O39   1.278       .  A
C30        C3516   1.483       .  S
O31         Ni50   1.927       .  S
O31          C37   1.269       .  A
O32         Ni50   1.897       .  S
O32          C34   1.267       .  A
Ni33         O36   1.920       .  S
Ni33         O38   1.913       .  S
C34          O44   1.276       .  A
C34        C3300   1.473       .  S
O35         Ni51   1.926       .  S
O35          C41   1.279       .  A
O36          C41   1.277       .  A
C37        C3337   1.486       .  S
O38          C40   1.269       .  A
O39         Ni50   1.929       .  S
C40          O46   1.270       .  A
C40        C3372   1.487   1_655  S
C41        C3265   1.485       .  S
H42          O43   0.966       .  S
O43         Ni51   1.919       .  S
O43         Ni45   1.912       .  S
O43         Ni50   1.909       .  S
O44         Ni45   1.943       .  S
Ni45         O49   1.915       .  S
Ni45         O47   1.910       .  S
O46         Ni51   1.925       .  S
C48          O49   1.267       .  A
C48        C3313   1.481       .  S
O53         Ni59   1.940       .  S
O53          C74   1.275       .  A
O54         Ni77   1.912       .  S
O54          C63   1.270       .  A
O55         Ni59   1.904       .  S
O55         Ni77   1.906       .  S
O55         Ni71   1.904       .  S
O55          H78   0.967       .  S
C56          O73   1.278       .  A
C56          O65   1.276       .  A
C56        C3217   1.481       .  S
O57         Ni76   1.922       .  S
O57          C63   1.270       .  A
O58         Ni76   1.908       .  S
O58          C60   1.269       .  A
Ni59         O62   1.926       .  S
Ni59         O64   1.918       .  S
C60          O70   1.279       .  A
C60        C3169   1.480       .  S
O61         Ni77   1.927       .  S
O61          C67   1.281       .  A
O62          C67   1.280       .  A
C63        C3252   1.481   1_655  S
O64          C66   1.270       .  A
O65         Ni76   1.917       .  S
C66          O72   1.268       .  A
C66        C3348   1.486       .  S
C67        C3145   1.487       .  S
H68          O69   0.966       .  S
O69         Ni77   1.920       .  S
O69         Ni71   1.899       .  S
O69         Ni76   1.898       .  S
O70         Ni71   1.949       .  S
Ni71         O75   1.917       .  S
Ni71         O73   1.923       .  S
O72         Ni77   1.921       .  S
C74          O75   1.272       .  A
C74        C3193   1.485       .  S
O79         Ni85   1.926       .  S
O79         C100   1.272       .  A
O80        Ni103   1.908       .  S
O80          C89   1.270       .  A
O81         Ni85   1.904       .  S
O81        Ni103   1.903       .  S
O81         Ni97   1.909       .  S
O81         H104   0.966       .  S
C82          O99   1.270       .  A
C82          O91   1.275       .  A
C82        C3228   1.481       .  S
O83        Ni102   1.925       .  S
O83          C89   1.273       .  A
O84        Ni102   1.896       .  S
O84          C86   1.268       .  A
Ni85         O88   1.914       .  S
Ni85         O90   1.922       .  S
C86          O96   1.281       .  A
C86        C3084   1.475       .  S
O87        Ni103   1.937       .  S
O87          C93   1.280       .  A
O88          C93   1.275       .  A
C89        C3457   1.483       .  S
O90          C92   1.272       .  A
O91        Ni102   1.936       .  S
C92          O98   1.269       .  A
C92        C3097   1.486       .  S
C93        C3049   1.476       .  S
H94          O95   0.967       .  S
O95        Ni103   1.926       .  S
O95         Ni97   1.914       .  S
O95        Ni102   1.905       .  S
O96         Ni97   1.963       .  S
Ni97        O101   1.922       .  S
Ni97         O99   1.904       .  S
O98        Ni103   1.915       .  S
C100        O101   1.271       .  A
C100       C3132   1.484       .  S
O105       Ni111   1.921       .  S
O105        C126   1.269       .  A
O106       Ni129   1.920       .  S
O106        C115   1.271       .  A
O107       Ni111   1.900       .  S
O107       Ni129   1.908       .  S
O107       Ni123   1.912       .  S
O107        H130   0.967       .  S
C108        O125   1.275       .  A
C108        O117   1.279       .  A
C108       C3025   1.486       .  S
O109       Ni128   1.926       .  S
O109        C115   1.270       .  A
O110       Ni128   1.896       .  S
O110        C112   1.266       .  A
Ni111       O114   1.910       .  S
Ni111       O116   1.912       .  S
C112        O122   1.275       .  A
C112       C2977   1.476       .  S
O113       Ni129   1.940       .  S
O113        C119   1.283       .  A
O114        C119   1.278       .  A
C115       C3361   1.484       .  S
O116        C118   1.268       .  A
O117       Ni128   1.933       .  S
C118        O124   1.269       .  A
C118       C3241   1.483       .  S
C119       C2964   1.487       .  S
H120        O121   0.966       .  S
O121       Ni129   1.918       .  S
O121       Ni123   1.912       .  S
O121       Ni128   1.900       .  S
O122       Ni123   1.944       .  S
Ni123       O127   1.928       .  S
Ni123       O125   1.911       .  S
O124       Ni129   1.916       .  S
C126        O127   1.270       .  A
C126       C3001   1.487       .  S
O131       Ni137   1.930       .  S
O131        C152   1.272       .  A
O132       Ni155   1.910       .  S
O132        C141   1.270       .  A
O133       Ni137   1.902       .  S
O133       Ni155   1.902       .  S
O133       Ni149   1.906       .  S
O133        H156   0.966       .  S
C134        O151   1.272       .  A
C134        O143   1.277       .  A
C134       C3036   1.488       .  S
O135       Ni154   1.932       .  S
O135        C141   1.274       .  A
O136       Ni154   1.891       .  S
O136        C138   1.267       .  A
Ni137       O140   1.916       .  S
Ni137       O142   1.914       .  S
C138        O148   1.278       .  A
C138       C2905   1.472       .  S
O139       Ni155   1.941       .  S
O139        C145   1.283       .  A
O140        C145   1.277       .  A
C141       C3108   1.486       .  S
O142        C144   1.270       .  A
O143       Ni154   1.937       .  S
C144        O150   1.268       .  A
C144       C3433   1.481       .  S
C145       C2881   1.476       .  S
H146        O147   0.966       .  S
O147       Ni155   1.924       .  S
O147       Ni149   1.914       .  S
O147       Ni154   1.903       .  S
O148       Ni149   1.952       .  S
Ni149       O153   1.918       .  S
Ni149       O151   1.909       .  S
O150       Ni155   1.911       .  S
C152        O153   1.270       .  A
C152       C2929   1.483       .  S
O157       Ni163   1.924       .  S
O157        C178   1.272       .  A
O158       Ni181   1.918       .  S
O158        C167   1.271       .  A
O159       Ni163   1.898       .  S
O159       Ni181   1.909       .  S
O159       Ni175   1.911       .  S
O159        H182   0.966       .  S
C160        O177   1.274       .  A
C160        O169   1.277       .  A
C160       C2868   1.481       .  S
O161       Ni180   1.926   1_556  S
O161        C167   1.270       .  A
O162       Ni180   1.900   1_556  S
O162        C164   1.268       .  A
Ni163       O166   1.914       .  S
Ni163       O168   1.909       .  S
C164        O174   1.276       .  A
C164       C2761   1.472       .  S
O165       Ni181   1.933       .  S
O165        C171   1.280       .  A
O166        C171   1.276       .  A
C167       C2820   1.484       .  S
O168        C170   1.269       .  A
O169       Ni180   1.926       .  S
C170        O176   1.270       .  A
C170       C2796   1.483       .  S
C171       C2737   1.467       .  S
H172        O173   0.966       .  S
O173       Ni181   1.920       .  S
O173       Ni175   1.913       .  S
O173       Ni180   1.903   1_556  S
O174       Ni175   1.943       .  S
Ni175       O179   1.925       .  S
Ni175       O177   1.914   1_556  S
O176       Ni181   1.920       .  S
C178        O179   1.271       .  A
C178       C2833   1.490       .  S
O183       Ni189   1.935       .  S
O183        C204   1.276       .  A
O184       Ni207   1.920       .  S
O184        C193   1.271       .  A
O185       Ni189   1.901       .  S
O185       Ni207   1.908       .  S
O185       Ni201   1.903       .  S
O185        H208   0.966       .  S
C186        O203   1.276       .  A
C186        O195   1.276       .  A
C186       C2857   1.480       .  S
O187       Ni206   1.930       .  S
O187        C193   1.272       .  A
O188       Ni206   1.907       .  S
O188        C190   1.269       .  A
Ni189       O192   1.924       .  S
Ni189       O194   1.913       .  S
C190        O200   1.277       .  A
C190       C2641   1.473       .  S
O191       Ni207   1.923       .  S
O191        C197   1.279       .  A
O192        C197   1.278       .  A
C193       C2676   1.487       .  S
O194        C196   1.269       .  A
O195       Ni206   1.919       .  S
C196        O202   1.270       .  A
C196       C2689   1.484       .  S
C197       C3276   1.474       .  S
H198        O199   0.966       .  S
O199       Ni207   1.915       .  S
O199       Ni201   1.906       .  S
O199       Ni206   1.896       .  S
O200       Ni201   1.943       .  S
Ni201       O205   1.923       .  S
Ni201       O203   1.922       .  S
O202       Ni207   1.925       .  S
C204        O205   1.273       .  A
C204       C2713   1.490       .  S
O209       Ni215   1.929       .  S
O209        C230   1.272       .  A
O210       Ni233   1.919       .  S
O210        C219   1.268       .  A
O211       Ni215   1.920       .  S
O211       Ni233   1.922       .  S
O211       Ni227   1.926       .  S
O211        H234   0.966       .  S
C212        O229   1.278       .  A
C212        O221   1.278       .  A
C212       C2617   1.482       .  S
O213       Ni232   1.922       .  S
O213        C219   1.268       .  A
O214       Ni232   1.898       .  S
O214        C216   1.267       .  A
Ni215       O218   1.918       .  S
Ni215       O220   1.918       .  S
C216        O226   1.277       .  A
C216       C2556   1.478       .  S
O217       Ni233   1.926       .  S
O217        C223   1.277       .  A
O218        C223   1.273       .  A
C219       C2569   1.478       .  S
O220        C222   1.272       .  A
O221       Ni232   1.923   1_554  S
C222        O228   1.271       .  A
C222       C2809   1.484       .  S
C223       C2521   1.489       .  S
H224        O225   0.966       .  S
O225       Ni233   1.913       .  S
O225       Ni227   1.900       .  S
O225       Ni232   1.903       .  S
O226       Ni227   1.946       .  S
Ni227       O231   1.916       .  S
Ni227       O229   1.918   1_556  S
O228       Ni233   1.921       .  S
C230        O231   1.270       .  A
C230       C2593   1.478       .  S
O235       Ni241   1.943       .  S
O235        C256   1.276       .  A
O236       Ni259   1.921       .  S
O236        C245   1.272       .  A
O237       Ni241   1.903       .  S
O237       Ni259   1.908       .  S
O237       Ni253   1.906       .  S
O237        H260   0.967       .  S
C238        O255   1.278       .  A
C238        O247   1.277       .  A
C238       C2628   1.481       .  S
O239       Ni258   1.921       .  S
O239        C245   1.269       .  A
O240       Ni258   1.903       .  S
O240        C242   1.268       .  A
Ni241       O244   1.935       .  S
Ni241       O246   1.911       .  S
C242        O252   1.277       .  A
C242       C2460   1.475       .  S
O243       Ni259   1.926       .  S
O243        C249   1.281       .  A
O244        C249   1.280       .  A
C245       C2700   1.482   1_565  S
O246        C248   1.269       .  A
O247       Ni258   1.917       .  S
C248        O254   1.271       .  A
C248       C2473   1.483       .  S
C249       C3156   1.481       .  S
H250        O251   0.966       .  S
O251       Ni259   1.918       .  S
O251       Ni253   1.895       .  S
O251       Ni258   1.895       .  S
O252       Ni253   1.945       .  S
Ni253       O257   1.910       .  S
Ni253       O255   1.926       .  S
O254       Ni259   1.927       .  S
C256        O257   1.270       .  A
C256       C2508   1.477       .  S
O261       Ni267   1.931       .  S
O261        C282   1.271       .  A
O262       Ni285   1.909       .  S
O262        C271   1.269       .  A
O263       Ni267   1.909       .  S
O263       Ni285   1.900       .  S
O263       Ni279   1.893       .  S
O263        H286   0.967       .  S
C264        O281   1.264       .  A
C264        O273   1.274       .  A
C264       C2425   1.483       .  S
O265       Ni284   1.922   1_556  S
O265        C271   1.272       .  A
O266       Ni284   1.896   1_556  S
O266        C268   1.270       .  A
Ni267       O270   1.910       .  S
Ni267       O272   1.916       .  S
C268        O278   1.283       .  A
C268       C2388   1.480       .  S
O269       Ni285   1.938       .  S
O269        C275   1.283       .  A
O270        C275   1.277       .  A
C271       C2785   1.485       .  S
O272        C274   1.269       .  A
O273       Ni284   1.943       .  S
C274        O280   1.268       .  A
C274       C2580   1.486       .  S
C275       C2364   1.487       .  S
H276        O277   0.966   1_554  S
O277       Ni285   1.939       .  S
O277       Ni279   1.915       .  S
O277       Ni284   1.912   1_556  S
O278       Ni279   1.970       .  S
Ni279       O283   1.915       .  S
Ni279       O281   1.896   1_556  S
O280       Ni285   1.917       .  S
C282        O283   1.267       .  A
C282       C2401   1.478   1_556  S
O287       Ni293   1.922       .  S
O287        C308   1.272       .  A
O288       Ni311   1.907       .  S
O288        C297   1.269       .  A
O289       Ni293   1.898       .  S
O289       Ni311   1.896       .  S
O289       Ni305   1.906       .  S
O289        H312   0.966       .  S
C290        O307   1.273       .  A
C290        O299   1.279       .  A
C290       C2436   1.483       .  S
O291       Ni310   1.933       .  S
O291        C297   1.274       .  A
O292       Ni310   1.895       .  S
O292        C294   1.267       .  A
Ni293       O296   1.908       .  S
Ni293       O298   1.925   1_565  S
C294        O304   1.281       .  A
C294       C2305   1.478       .  S
O295       Ni311   1.946       .  S
O295        C301   1.284       .  A
O296        C301   1.276       .  A
C297       C2484   1.482       .  S
O298        C300   1.270       .  A
O299       Ni310   1.937       .  S
C300        O306   1.267   1_545  A
C300       C2665   1.487       .  S
C301       C2953   1.472       .  S
H302        O303   0.966       .  S
O303       Ni311   1.918       .  S
O303       Ni305   1.909       .  S
O303       Ni310   1.897       .  S
O304       Ni305   1.961       .  S
Ni305       O309   1.925       .  S
Ni305       O307   1.904       .  S
O306       Ni311   1.913       .  S
C308        O309   1.273       .  A
C308       C2329   1.486       .  S
O313       Ni319   1.927       .  S
O313        C334   1.271       .  A
O314       Ni337   1.919   1_545  S
O314        C323   1.271       .  A
O315       Ni319   1.898       .  S
O315       Ni337   1.907       .  S
O315       Ni331   1.913       .  S
O315        H338   0.966       .  S
C316        O333   1.280       .  A
C316        O325   1.276       .  A
C316       C2220   1.472       .  S
O317       Ni336   1.927       .  S
O317        C323   1.273   1_565  A
O318       Ni336   1.927       .  S
O318        C320   1.272       .  A
Ni319       O322   1.931       .  S
Ni319       O324   1.894       .  S
C320        O330   1.268       .  A
C320       C2257   1.487       .  S
O321       Ni337   1.906       .  S
O321        C327   1.274       .  A
O322        C327   1.278       .  A
C323       C3289   1.482       .  S
O324        C326   1.267       .  A
O325       Ni336   1.915       .  S
C326        O332   1.279   1_565  A
C326       C3012   1.478   1_565  S
C327       C2281   1.480   1_565  S
H328        O329   0.966       .  S
O329       Ni337   1.914       .  S
O329       Ni331   1.906       .  S
O329       Ni336   1.906       .  S
O330       Ni331   1.911       .  S
Ni331       O335   1.910       .  S
Ni331       O333   1.934       .  S
O332       Ni337   1.957   1_545  S
C334        O335   1.269       .  A
C334       C2244   1.482       .  S
O339       Ni345   1.928       .  S
O339        C360   1.271       .  A
O340       Ni363   1.921       .  S
O340        C349   1.270       .  A
O341       Ni345   1.900       .  S
O341       Ni363   1.910       .  S
O341       Ni357   1.913       .  S
O341        H364   0.966       .  S
C342        O359   1.280       .  A
C342        O351   1.279       .  A
C342       C2148   1.471       .  S
O343       Ni362   1.931       .  S
O343        C349   1.271       .  A
O344       Ni362   1.911       .  S
O344        C346   1.269       .  A
Ni345       O348   1.927       .  S
Ni345       O350   1.899       .  S
C346        O356   1.270       .  A
C346       C2161   1.483       .  S
O347       Ni363   1.910       .  S
O347        C353   1.275       .  A
O348        C353   1.278       .  A
C349       C2449   1.484       .  S
O350        C352   1.267       .  A
O351       Ni362   1.919       .  S
C352        O358   1.274       .  A
C352       C2340   1.472       .  S
C353       C2292   1.481       .  S
H354        O355   0.966       .  S
O355       Ni363   1.906       .  S
O355       Ni357   1.907       .  S
O355       Ni362   1.901       .  S
O356       Ni357   1.917       .  S
Ni357       O361   1.919       .  S
Ni357       O359   1.925       .  S
O358       Ni363   1.941       .  S
C360        O361   1.271       .  A
C360       C2185   1.485       .  S
O365       Ni371   1.923       .  S
O365        C386   1.269       .  A
O366       Ni389   1.926       .  S
O366        C375   1.273       .  A
O367       Ni371   1.892       .  S
O367       Ni389   1.907       .  S
O367       Ni383   1.907       .  S
O367        H390   0.966       .  S
C368        O385   1.277       .  A
C368        O377   1.278       .  A
C368       C2065   1.480       .  S
O369       Ni388   1.936       .  S
O369        C375   1.273       .  A
O370       Ni388   1.910       .  S
O370        C372   1.269       .  A
Ni371       O374   1.913       .  S
Ni371       O376   1.900       .  S
C372        O382   1.271       .  A
C372       C2233   1.483       .  S
O373       Ni389   1.918       .  S
O373        C379   1.277       .  A
O374        C379   1.276       .  A
C375       C3180   1.489       .  S
O376        C378   1.269       .  A
O377       Ni388   1.925       .  S
C378        O384   1.277       .  A
C378       C3324   1.481       .  S
C379       C2100   1.474       .  S
H380        O381   0.967       .  S
O381       Ni389   1.909       .  S
O381       Ni383   1.921       .  S
O381       Ni388   1.909       .  S
O382       Ni383   1.929       .  S
Ni383       O387   1.929       .  S
Ni383       O385   1.917       .  S
O384       Ni389   1.946       .  S
C386        O387   1.272       .  A
C386       C2124   1.490       .  S
O391       Ni397   1.924       .  S
O391        C412   1.271       .  A
O392       Ni415   1.927   1_455  S
O392        C401   1.275       .  A
O393       Ni397   1.890       .  S
O393       Ni415   1.904       .  S
O393       Ni409   1.910       .  S
O393        H416   0.966       .  S
C394        O411   1.280       .  A
C394        O403   1.278       .  A
C394       C2028   1.470       .  S
O395       Ni414   1.929       .  S
O395        C401   1.275   1_655  A
O396       Ni414   1.921       .  S
O396        C398   1.271       .  A
Ni397       O400   1.917       .  S
Ni397       O402   1.901       .  S
C398        O408   1.269       .  A
C398       C2052   1.486       .  S
O399       Ni415   1.918       .  S
O399        C405   1.278       .  A
O400        C405   1.277       .  A
C401       C2316   1.491       .  S
O402        C404   1.268   1_655  A
O403       Ni414   1.920       .  S
C404        O410   1.278       .  A
C404       C2724   1.474       .  S
C405       C2089   1.473       .  S
H406        O407   0.966       .  S
O407       Ni415   1.912       .  S
O407       Ni409   1.898       .  S
O407       Ni414   1.893       .  S
O408       Ni409   1.920       .  S
Ni409       O413   1.910       .  S
Ni409       O411   1.928       .  S
O410       Ni415   1.948   1_455  S
C412        O413   1.270       .  A
C412       C2172   1.480       .  S
O417       Ni423   1.929       .  S
O417        C438   1.274       .  A
O418       Ni441   1.911       .  S
O418        C427   1.271       .  A
O419       Ni423   1.901       .  S
O419       Ni441   1.908       .  S
O419       Ni435   1.921       .  S
O419        H442   0.966       .  S
C420        O437   1.279       .  A
C420        O429   1.275       .  A
C420       C1969   1.474       .  S
O421       Ni440   1.927       .  S
O421        C427   1.274       .  A
O422       Ni440   1.932       .  S
O422        C424   1.274       .  A
Ni423       O426   1.939       .  S
Ni423       O428   1.897       .  S
C424        O434   1.270       .  A
C424       C2113   1.491       .  S
O425       Ni441   1.913       .  S
O425        C431   1.272       .  A
O426        C431   1.277       .  A
C427       C2988   1.476       .  S
O428        C430   1.268       .  A
O429       Ni440   1.916       .  S
C430        O436   1.280       .  A
C430       C3204   1.477       .  S
C431       C1993   1.487       .  S
H432        O433   0.966       .  S
O433       Ni441   1.911       .  S
O433       Ni435   1.898       .  S
O433       Ni440   1.906       .  S
O434       Ni435   1.914       .  S
Ni435       O439   1.905       .  S
Ni435       O437   1.931       .  S
O436       Ni441   1.964       .  S
C438        O439   1.269       .  A
C438       C2268   1.484       .  S
O443       Ni449   1.923       .  S
O443        C464   1.270       .  A
O444       Ni467   1.914       .  S
O444        C453   1.270       .  A
O445       Ni449   1.899       .  S
O445       Ni467   1.908       .  S
O445       Ni461   1.926       .  S
O445        H468   0.966       .  S
C446        O463   1.284       .  A
C446        O455   1.279       .  A
C446       C1956   1.490       .  S
O447       Ni466   1.938       .  S
O447        C453   1.274       .  A
O448       Ni466   1.917       .  S
O448        C450   1.270       .  A
Ni449       O452   1.929       .  S
Ni449       O454   1.897       .  S
C450        O460   1.269       .  A
C450       C2196   1.486       .  S
O451       Ni467   1.920       .  S
O451        C457   1.276       .  A
O452        C457   1.278       .  A
C453       C2652   1.485       .  S
O454        C456   1.267       .  A
O455       Ni466   1.919       .  S
C456        O462   1.276       .  A
C456       C2497   1.476       .  S
C457       C2004   1.489       .  S
H458        O459   0.967       .  S
O459       Ni467   1.905       .  S
O459       Ni461   1.910       .  S
O459       Ni466   1.903       .  S
O460       Ni461   1.919       .  S
Ni461       O465   1.927       .  S
Ni461       O463   1.939       .  S
O462       Ni467   1.942       .  S
C464        O465   1.272       .  A
C464       C2041   1.485       .  S
O469       Ni475   1.925       .  S
O469        C490   1.271       .  A
O470       Ni493   1.910       .  S
O470        C479   1.268       .  A
O471       Ni475   1.894       .  S
O471       Ni493   1.900       .  S
O471       Ni487   1.908       .  S
O471        H494   0.966       .  S
C472        O489   1.278       .  A
C472        O481   1.278       .  A
C472       C1980   1.474       .  S
O473       Ni492   1.931       .  S
O473        C479   1.273       .  A
O474       Ni492   1.918       .  S
O474        C476   1.271       .  A
Ni475       O478   1.924       .  S
Ni475       O480   1.897       .  S
C476        O486   1.268       .  A
C476       C1908   1.483       .  S
O477       Ni493   1.914       .  S
O477        C483   1.276       .  A
O478        C483   1.279       .  A
C479       C2916   1.483       .  S
O480        C482   1.266       .  A
O481       Ni492   1.921       .  S
C482        O488   1.274       .  A
C482       C3481   1.470       .  S
C483       C1932   1.481       .  S
H484        O485   0.966       .  S
O485       Ni493   1.911       .  S
O485       Ni487   1.905       .  S
O485       Ni492   1.903       .  S
O486       Ni487   1.911       .  S
Ni487       O491   1.912       .  S
Ni487       O489   1.923       .  S
O488       Ni493   1.939       .  S
C490        O491   1.268       .  A
C490       C1873   1.475       .  S
O495       Ni501   1.926       .  S
O495        C516   1.272       .  A
O496       Ni519   1.913       .  S
O496        C505   1.269       .  A
O497       Ni501   1.891       .  S
O497       Ni519   1.903       .  S
O497       Ni513   1.910       .  S
O497        H520   0.967       .  S
C498        O515   1.282       .  A
C498        O507   1.277       .  A
C498       C1764   1.476       .  S
O499       Ni518   1.928       .  S
O499        C505   1.273       .  A
O500       Ni518   1.922       .  S
O500        C502   1.272       .  A
Ni501       O504   1.935       .  S
Ni501       O506   1.896       .  S
C502        O512   1.271       .  A
C502       C1801   1.488       .  S
O503       Ni519   1.908       .  S
O503        C509   1.275       .  A
O504        C509   1.280       .  A
C505       C1849   1.479       .  S
O506        C508   1.265       .  A
O507       Ni518   1.915       .  S
C508        O514   1.275       .  A
C508       C1788   1.476       .  S
C509       C1921   1.482       .  S
H510        O511   0.966       .  S
O511       Ni519   1.909       .  S
O511       Ni513   1.901       .  S
O511       Ni518   1.895       .  S
O512       Ni513   1.922       .  S
Ni513       O517   1.912       .  S
Ni513       O515   1.937       .  S
O514       Ni519   1.948       .  S
C516        O517   1.271       .  A
C516       C1836   1.477       .  S
O521       Ni527   1.926       .  S
O521        C542   1.271       .  A
O522       Ni545   1.916       .  S
O522        C531   1.271       .  A
O523       Ni527   1.900       .  S
O523       Ni545   1.909       .  S
O523       Ni539   1.922       .  S
O523        H546   0.966       .  S
C524        O541   1.281       .  A
C524        O533   1.279       .  A
C524       C2076   1.478       .  S
O525       Ni544   1.937       .  S
O525        C531   1.275       .  A
O526       Ni544   1.914       .  S
O526        C528   1.269       .  A
Ni527       O530   1.924       .  S
Ni527       O532   1.905       .  S
C528        O538   1.268       .  A
C528       C1884   1.477       .  S
O529       Ni545   1.913       .  S
O529        C535   1.273       .  A
O530        C535   1.275       .  A
C531       C3073   1.485       .  S
O532        C534   1.270       .  A
O533       Ni544   1.923       .  S
C534        O540   1.277       .  A
C534       C2940   1.473       .  S
C535       C1729   1.478       .  S
H536        O537   0.967       .  S
O537       Ni545   1.902       .  S
O537       Ni539   1.904       .  S
O537       Ni544   1.907       .  S
O538       Ni539   1.915       .  S
Ni539       O543   1.918       .  S
Ni539       O541   1.927       .  S
O540       Ni545   1.942       .  S
C542        O543   1.270       .  A
C542       C1705   1.484       .  S
O547       Ni553   1.940       .  S
O547        C568   1.276       .  A
O548       Ni571   1.920       .  S
O548        C557   1.272       .  A
O549       Ni553   1.896       .  S
O549       Ni571   1.910       .  S
O549       Ni565   1.913       .  S
O549        H572   0.967       .  S
C550        O567   1.281       .  A
C550        O559   1.277       .  A
C550       C1609   1.477       .  S
O551       Ni570   1.929       .  S
O551        C557   1.274       .  A
O552       Ni570   1.923       .  S
O552        C554   1.271       .  A
Ni553       O556   1.941       .  S
Ni553       O558   1.903       .  S
C554        O564   1.270       .  A
C554       C1681   1.486       .  S
O555       Ni571   1.905       .  S
O555        C561   1.273       .  A
O556        C561   1.280       .  A
C557       C1657   1.486       .  S
O558        C560   1.269       .  A
O559       Ni570   1.917       .  S
C560        O566   1.279       .  A
C560       C1633   1.481       .  S
C561       C1740   1.482       .  S
H562        O563   0.966       .  S
O563       Ni571   1.908       .  S
O563       Ni565   1.898       .  S
O563       Ni570   1.898       .  S
O564       Ni565   1.920       .  S
Ni565       O569   1.905       .  S
Ni565       O567   1.935       .  S
O566       Ni571   1.956       .  S
C568        O569   1.270       .  A
C568       C1812   1.488   1_565  S
O573       Ni579   1.929       .  S
O573        C594   1.273       .  A
O574       Ni597   1.923       .  S
O574        C583   1.273       .  A
O575       Ni579   1.889       .  S
O575       Ni597   1.905       .  S
O575       Ni591   1.907       .  S
O575        H598   0.967       .  S
C576        O593   1.279       .  A
C576        O585   1.276       .  A
C576       C2209   1.474       .  S
O577       Ni596   1.927       .  S
O577        C583   1.274       .  A
O578       Ni596   1.926       .  S
O578        C580   1.271       .  A
Ni579       O582   1.931       .  S
Ni579       O584   1.897       .  S
C580        O590   1.269       .  A
C580       C1716   1.482       .  S
O581       Ni597   1.910       .  S
O581        C587   1.276       .  A
O582        C587   1.279       .  A
C583       C3420   1.487       .  S
O584        C586   1.266       .  A
O585       Ni596   1.917       .  S
C586        O592   1.279       .  A
C586       C3121   1.477       .  S
C587       C1585   1.482       .  S
H588        O589   0.966       .  S
O589       Ni597   1.912       .  S
O589       Ni591   1.900       .  S
O589       Ni596   1.898       .  S
O590       Ni591   1.917       .  S
Ni591       O595   1.907       .  S
Ni591       O593   1.933       .  S
O592       Ni597   1.958       .  S
C594        O595   1.270       .  A
C594       C1897   1.481       .  S
O599       Ni605   1.924       .  S
O599        C620   1.269       .  A
O600       Ni623   1.922       .  S
O600        C609   1.270       .  A
O601       Ni605   1.902       .  S
O601       Ni623   1.909       .  S
O601       Ni617   1.916       .  S
O601        H624   0.966       .  S
C602        O619   1.279       .  A
C602        O611   1.277       .  A
C602       C1513   1.472       .  S
O603       Ni622   1.934       .  S
O603        C609   1.272       .  A
O604       Ni622   1.915       .  S
O604        C606   1.270       .  A
Ni605       O608   1.925       .  S
Ni605       O610   1.898       .  S
C606        O616   1.267       .  A
C606       C1825   1.483   1_565  S
O607       Ni623   1.913       .  S
O607        C613   1.276       .  A
O608        C613   1.278       .  A
C609       C1561   1.491       .  S
O610        C612   1.267       .  A
O611       Ni622   1.920       .  S
C612        O618   1.274       .  A
C612       C1537   1.472       .  S
C613       C1596   1.481       .  S
H614        O615   0.967       .  S
O615       Ni623   1.911       .  S
O615       Ni617   1.916       .  S
O615       Ni622   1.910       .  S
O616       Ni617   1.912       .  S
Ni617       O621   1.921       .  S
Ni617       O619   1.929       .  S
O618       Ni623   1.939       .  S
C620        O621   1.270       .  A
C620       C1692   1.485       .  S
O625       Ni631   1.929       .  S
O625        C646   1.271       .  A
O626       Ni649   1.922       .  S
O626        C635   1.271       .  A
O627       Ni631   1.902       .  S
O627       Ni649   1.911       .  S
O627       Ni643   1.910   1_556  S
O627        H650   0.966       .  S
C628        O645   1.277       .  A
C628        O637   1.278       .  A
C628       C2017   1.467       .  S
O629       Ni648   1.933   1_556  S
O629        C635   1.273       .  A
O630       Ni648   1.917       .  S
O630        C632   1.270       .  A
Ni631       O634   1.922       .  S
Ni631       O636   1.904       .  S
C632        O642   1.269   1_554  A
C632       C1465   1.487   1_554  S
O633       Ni649   1.909       .  S
O633        C639   1.274       .  A
O634        C639   1.277       .  A
C635       C2377   1.488       .  S
O636        C638   1.269       .  A
O637       Ni648   1.921       .  S
C638        O644   1.276       .  A
C638       C2604   1.478       .  S
C639       C1500   1.472       .  S
H640        O641   0.966       .  S
O641       Ni649   1.906   1_554  S
O641       Ni643   1.905       .  S
O641       Ni648   1.904       .  S
O642       Ni643   1.918   1_556  S
Ni643       O647   1.905       .  S
Ni643       O645   1.917       .  S
O644       Ni649   1.941       .  S
C646        O647   1.267   1_556  A
C646       C1441   1.481       .  S
O651       Ni657   1.932       .  S
O651        C672   1.273       .  A
O652       Ni675   1.925       .  S
O652        C661   1.271       .  A
O653       Ni657   1.893       .  S
O653       Ni675   1.908       .  S
O653       Ni669   1.907       .  S
O653        H676   0.967       .  S
C654        O671   1.279       .  A
C654        O663   1.276       .  A
C654       C1620   1.472       .  S
O655       Ni674   1.927       .  S
O655        C661   1.273       .  A
O656       Ni674   1.918       .  S
O656        C658   1.271       .  A
Ni657       O660   1.928       .  S
Ni657       O662   1.899       .  S
C658        O668   1.270       .  A
C658       C1404   1.484   1_655  S
O659       Ni675   1.905       .  S
O659        C665   1.274       .  A
O660        C665   1.279       .  A
C661       C1428   1.491       .  S
O662        C664   1.267       .  A
O663       Ni674   1.917       .  S
C664        O670   1.276       .  A
C664       C1345   1.471       .  S
C665       C1489   1.474       .  S
H666        O667   0.966       .  S
O667       Ni675   1.911       .  S
O667       Ni669   1.907       .  S
O667       Ni674   1.897       .  S
O668       Ni669   1.917       .  S
Ni669       O673   1.917       .  S
Ni669       O671   1.929       .  S
O670       Ni675   1.943       .  S
C672        O673   1.271       .  A
C672       C1369   1.485       .  S
O677       Ni683   1.921       .  S
O677        C698   1.268   1_556  A
O678       Ni701   1.914       .  S
O678        C687   1.270       .  A
O679       Ni683   1.907       .  S
O679       Ni701   1.907       .  S
O679       Ni695   1.915   1_556  S
O679        H702   0.966       .  S
C680        O697   1.272       .  A
C680        O689   1.272       .  A
C680       C2137   1.474       .  S
O681       Ni700   1.927   1_556  S
O681        C687   1.272       .  A
O682       Ni700   1.918   1_556  S
O682        C684   1.274       .  A
Ni683       O686   1.922       .  S
Ni683       O688   1.899       .  S
C684        O694   1.273   1_556  A
C684       C1332   1.482       .  S
O685       Ni701   1.918       .  S
O685        C691   1.276       .  A
O686        C691   1.276       .  A
C687       C2545   1.484       .  S
O688        C690   1.268       .  A
O689       Ni700   1.923       .  S
C690        O696   1.275       .  A
C690       C2844   1.476       .  S
C691       C1297   1.484       .  S
H692        O693   0.967       .  S
O693       Ni701   1.930   1_554  S
O693       Ni695   1.922       .  S
O693       Ni700   1.922       .  S
O694       Ni695   1.926       .  S
Ni695       O699   1.921       .  S
Ni695       O697   1.923       .  S
O696       Ni701   1.940       .  S
C698        O699   1.268       .  A
C698       C1476   1.486       .  S
O703       Ni709   1.913       .  S
O703        C724   1.270       .  A
O704       Ni727   1.913       .  S
O704        C713   1.268       .  A
O705       Ni709   1.913       .  S
O705       Ni727   1.918       .  S
O705       Ni721   1.949       .  S
O705        H728   0.966       .  S
C706        O723   1.282       .  A
C706        O715   1.278       .  A
C706       C1524   1.476       .  S
O707       Ni726   1.940       .  S
O707        C713   1.273       .  A
O708       Ni726   1.918       .  S
O708        C710   1.270       .  A
Ni709       O712   1.935       .  S
Ni709       O714   1.891       .  S
C710        O720   1.268       .  A
C710       C1380   1.484       .  S
O711       Ni727   1.897       .  S
O711        C717   1.262       .  A
O712        C717   1.270       .  A
C713       C1284   1.484       .  S
O714        C716   1.271       .  A
O715       Ni726   1.918       .  S
C716        O722   1.285       .  A
C716       C1236   1.477       .  S
C717       C1308   1.482       .  S
H718        O719   0.966       .  S
O719       Ni727   1.885       .  S
O719       Ni721   1.902       .  S
O719       Ni726   1.907       .  S
O720       Ni721   1.915       .  S
Ni721       O725   1.922       .  S
Ni721       O723   1.930       .  S
O722       Ni727   1.969       .  S
C724        O725   1.272       .  A
C724       C1249   1.490   1_655  S
O729       Ni735   1.927       .  S
O729        C750   1.271       .  A
O730       Ni753   1.931       .  S
O730        C739   1.273       .  A
O731       Ni735   1.894       .  S
O731       Ni753   1.912       .  S
O731       Ni747   1.916   1_556  S
O731        H754   0.967       .  S
C732        O749   1.281       .  A
C732        O741   1.277       .  A
C732       C1945   1.473       .  S
O733       Ni752   1.921   1_556  S
O733        C739   1.271       .  A
O734       Ni752   1.914       .  S
O734        C736   1.269       .  A
Ni735       O738   1.925       .  S
Ni735       O740   1.895       .  S
C736        O746   1.268   1_554  A
C736       C1452   1.481   1_554  S
O737       Ni753   1.913       .  S
O737        C743   1.275       .  A
O738        C743   1.277       .  A
C739       C2772   1.488       .  S
O740        C742   1.268       .  A
O741       Ni752   1.912       .  S
C742        O748   1.278       .  A
C742       C2412   1.476       .  S
C743       C1212   1.481       .  S
H744        O745   0.966       .  S
O745       Ni753   1.911   1_554  S
O745       Ni747   1.904       .  S
O745       Ni752   1.893       .  S
O746       Ni747   1.913   1_556  S
Ni747       O751   1.913       .  S
Ni747       O749   1.938       .  S
O748       Ni753   1.948       .  S
C750        O751   1.270   1_556  A
C750       C1321   1.483       .  S
O755       Ni761   1.927       .  S
O755        C776   1.272       .  A
O756       Ni779   1.921       .  S
O756        C765   1.273       .  A
O757       Ni761   1.891       .  S
O757       Ni779   1.907       .  S
O757       Ni773   1.912       .  S
O757        H780   0.966       .  S
C758        O775   1.282       .  A
C758        O767   1.278       .  A
C758       C1753   1.472       .  S
O759       Ni778   1.934       .  S
O759        C765   1.277       .  A
O760       Ni778   1.929       .  S
O760        C762   1.273       .  A
Ni761       O764   1.921       .  S
Ni761       O766   1.895       .  S
C762        O772   1.269       .  A
C762       C1260   1.484       .  S
O763       Ni779   1.919       .  S
O763        C769   1.277       .  A
O764        C769   1.277       .  A
C765       C1177   1.491       .  S
O766        C768   1.268       .  A
O767       Ni778   1.917       .  S
C768        O774   1.279       .  A
C768       C1153   1.481       .  S
C769       C1201   1.479       .  S
H770        O771   0.966       .  S
O771       Ni779   1.911       .  S
O771       Ni773   1.899       .  S
O771       Ni778   1.894       .  S
O772       Ni773   1.918       .  S
Ni773       O777   1.911       .  S
Ni773       O775   1.935       .  S
O774       Ni779   1.951       .  S
C776        O777   1.270       .  A
C776       C1393   1.482       .  S
O781       Ni787   1.936       .  S
O781        C802   1.275       .  A
O782       Ni805   1.919       .  S
O782        C791   1.269       .  A
O783       Ni787   1.919       .  S
O783       Ni805   1.918       .  S
O783       Ni799   1.919       .  S
O783        H806   0.966       .  S
C784        O801   1.274       .  A
C784        O793   1.275       .  A
C784       C1140   1.485       .  S
O785       Ni804   1.922       .  S
O785        C791   1.268       .  A
O786       Ni804   1.895       .  S
O786        C788   1.267       .  A
Ni787       O790   1.927       .  S
Ni787       O792   1.919       .  S
C788        O798   1.276       .  A
C788       C1860   1.476       .  S
O789       Ni805   1.919       .  S
O789        C795   1.275       .  A
O790        C795   1.274       .  A
C791       C1081   1.485       .  S
O792        C794   1.272       .  A
O793       Ni804   1.920       .  S
C794        O800   1.270       .  A
C794       C1116   1.483       .  S
C795       C3060   1.471       .  S
H796        O797   0.966       .  S
O797       Ni805   1.915       .  S
O797       Ni799   1.909       .  S
O797       Ni804   1.907       .  S
O798       Ni799   1.945       .  S
Ni799       O803   1.908       .  S
Ni799       O801   1.918       .  S
O800       Ni805   1.917       .  S
C802        O803   1.269       .  A
C802       C1548   1.480       .  S
O807       Ni813   1.929       .  S
O807        C828   1.272       .  A
O808       Ni831   1.922       .  S
O808        C817   1.272       .  A
O809       Ni813   1.917       .  S
O809       Ni831   1.908       .  S
O809       Ni825   1.901       .  S
O809        H832   0.964       .  S
C810        O827   1.264       .  A
C810        O819   1.269       .  A
C810       C1129   1.483       .  S
O811       Ni830   1.915       .  S
O811        C817   1.269       .  A
O812       Ni830   1.899       .  S
O812        C814   1.273       .  A
Ni813       O816   1.919       .  S
Ni813       O818   1.913       .  S
C814        O824   1.287       .  A
C814       C1188   1.483       .  S
O815       Ni831   1.928       .  S
O815        C821   1.278       .  A
O816        C821   1.273       .  A
C817       C1044   1.485       .  S
O818        C820   1.271       .  A
O819       Ni830   1.931       .  S
C820        O826   1.272       .  A
C820       C1068   1.482       .  S
C821       C2532   1.473       .  S
H822        O823   0.968       .  S
O823       Ni831   1.942       .  S
O823       Ni825   1.917       .  S
O823       Ni830   1.914       .  S
O824       Ni825   1.975       .  S
Ni825       O829   1.915       .  S
Ni825       O827   1.907       .  S
O826       Ni831   1.927       .  S
C828        O829   1.270       .  A
C828       C1356   1.480       .  S
O833       Ni839   1.933       .  S
O833        C854   1.275       .  A
O834       Ni857   1.917       .  S
O834        C843   1.271       .  A
O835       Ni839   1.899       .  S
O835       Ni857   1.903       .  S
O835       Ni851   1.904       .  S
O835        H858   0.966       .  S
C836        O853   1.278       .  A
C836        O845   1.276       .  A
C836        C996   1.482       .  S
O837       Ni856   1.924       .  S
O837        C843   1.271       .  A
O838       Ni856   1.909       .  S
O838        C840   1.270       .  A
Ni839       O842   1.927       .  S
Ni839       O844   1.912       .  S
C840        O850   1.278       .  A
C840       C1273   1.481   1_565  S
O841       Ni857   1.925       .  S
O841        C847   1.281       .  A
O842        C847   1.279       .  A
C843       C1057   1.482       .  S
O844        C846   1.268       .  A
O845       Ni856   1.918       .  S
C846        O852   1.269       .  A
C846       C1009   1.482       .  S
C847       C2353   1.473       .  S
H848        O849   0.966       .  S
O849       Ni857   1.917       .  S
O849       Ni851   1.898       .  S
O849       Ni856   1.893       .  S
O850       Ni851   1.946       .  S
Ni851       O855   1.920       .  S
Ni851       O853   1.928       .  S
O852       Ni857   1.920       .  S
C854        O855   1.273       .  A
C854       C1164   1.483   1_565  S
O859       Ni865   1.925       .  S
O859        C880   1.274       .  A
O860       Ni883   1.907       .  S
O860        C869   1.269       .  A
O861       Ni865   1.896       .  S
O861       Ni883   1.898       .  S
O861       Ni877   1.912       .  S
O861        H884   0.966       .  S
C862        O879   1.274       .  A
C862        O871   1.278       .  A
C862        C985   1.482       .  S
O863       Ni882   1.936       .  S
O863        C869   1.274       .  A
O864       Ni882   1.897       .  S
O864        C866   1.269       .  A
Ni865       O868   1.918       .  S
Ni865       O870   1.925       .  S
C866        O876   1.279       .  A
C866       C1572   1.478       .  S
O867       Ni883   1.936       .  S
O867        C873   1.281       .  A
O868        C873   1.277       .  A
C869        C961   1.484       .  S
O870        C872   1.271       .  A
O871       Ni882   1.932       .  S
C872        O878   1.268       .  A
C872       C1092   1.484       .  S
C873       C2892   1.479       .  S
H874        O875   0.967       .  S
O875       Ni883   1.914       .  S
O875       Ni877   1.910       .  S
O875       Ni882   1.894       .  S
O876       Ni877   1.954       .  S
Ni877       O881   1.925       .  S
Ni877       O879   1.910       .  S
O878       Ni883   1.910       .  S
C880        O881   1.274       .  A
C880       C1644   1.489       .  S
O885       Ni891   1.938       .  S
O885        C906   1.274       .  A
O886       Ni909   1.918       .  S
O886        C895   1.270       .  A
O887       Ni891   1.907       .  S
O887       Ni909   1.907       .  S
O887       Ni903   1.908       .  S
O887        H910   0.967       .  S
C888        O905   1.276       .  A
C888        O897   1.278       .  A
C888        C937   1.481       .  S
O889       Ni908   1.921       .  S
O889        C895   1.269       .  A
O890       Ni908   1.898       .  S
O890        C892   1.267       .  A
Ni891       O894   1.920       .  S
Ni891       O896   1.921       .  S
C892        O902   1.277       .  A
C892       C1417   1.474       .  S
O893       Ni909   1.929       .  S
O893        C899   1.282       .  A
O894        C899   1.279       .  A
C895       C1020   1.478       .  S
O896        C898   1.271       .  A
O897       Ni908   1.922       .  S
C898        O904   1.268       .  A
C898       C1033   1.484       .  S
C899       C2748   1.484       .  S
H900        O901   0.966       .  S
O901       Ni909   1.916       .  S
O901       Ni903   1.899       .  S
O901       Ni908   1.893       .  S
O902       Ni903   1.945       .  S
Ni903       O907   1.910       .  S
Ni903       O905   1.917       .  S
O904       Ni909   1.916       .  S
C906        O907   1.269       .  A
C906       C1225   1.480       .  S
O911       Ni917   1.929       .  S
O911        C932   1.273   1_655  A
O912       Ni935   1.908       .  S
O912        C921   1.270       .  A
O913       Ni917   1.899       .  S
O913       Ni935   1.903       .  S
O913       Ni929   1.909       .  S
O913        H936   0.966       .  S
C914        O931   1.273       .  A
C914        O923   1.277       .  A
C914        C948   1.479       .  S
O915       Ni934   1.927       .  S
O915        C921   1.273       .  A
O916       Ni934   1.895       .  S
O916        C918   1.267       .  A
Ni917       O920   1.917       .  S
Ni917       O922   1.920       .  S
C918        O928   1.277       .  A
C918       C1668   1.474   1_655  S
O919       Ni935   1.932       .  S
O919        C925   1.279       .  A
O920        C925   1.276       .  A
C921       C1105   1.482       .  S
O922        C924   1.271       .  A
O923       Ni934   1.932       .  S
C924        O930   1.269       .  A
C924        C972   1.482       .  S
C925       C3396   1.475       .  S
H926        O927   0.966       .  S
O927       Ni935   1.911       .  S
O927       Ni929   1.909       .  S
O927       Ni934   1.894       .  S
O928       Ni929   1.953       .  S
Ni929       O933   1.921   1_655  S
Ni929       O931   1.906       .  S
O930       Ni935   1.912       .  S
C932        O933   1.271       .  A
C932       C1777   1.485       .  S
C937        C938   1.407       .  A
C937        C942   1.405       .  A
C938        C939   1.398       .  A
C938        H951   1.083       .  S
C939        C940   1.403       .  A
C939        H952   1.083       .  S
C940        C941   1.407       .  A
C940        C943   1.485       .  S
C941        C942   1.395       .  A
C941        H953   1.081       .  S
C942        H954   1.083       .  S
C943        C944   1.346       .  D
C943        H955   1.085       .  S
C944        C945   1.481       .  S
C944        H956   1.085       .  S
C945        C946   1.401       .  A
C945        C950   1.408       .  A
C946        C947   1.393       .  A
C946        H957   1.084       .  S
C947        C948   1.406   1_455  A
C947        H958   1.083   1_455  S
C948        C949   1.405   1_655  A
C949        C950   1.399       .  A
C949        H959   1.083       .  S
C950        H960   1.082       .  S
C961        C962   1.406       .  A
C961        C966   1.407       .  A
C962        C963   1.400       .  A
C962        H975   1.083       .  S
C963        C964   1.405       .  A
C963        H976   1.083       .  S
C964        C965   1.406       .  A
C964        C967   1.487       .  S
C965        C966   1.397       .  A
C965        H977   1.081       .  S
C966        H978   1.083       .  S
C967        C968   1.348       .  D
C967        H979   1.086       .  S
C968        C969   1.483       .  S
C968        H980   1.085       .  S
C969        C970   1.403       .  A
C969        C974   1.405       .  A
C970        C971   1.399       .  A
C970        H981   1.083       .  S
C971        C972   1.407       .  A
C971        H982   1.083       .  S
C972        C973   1.407       .  A
C973        C974   1.396       .  A
C973        H983   1.083       .  S
C974        H984   1.083       .  S
C985        C986   1.406       .  A
C985        C990   1.407       .  A
C986        C987   1.396       .  A
C986        H999   1.083       .  S
C987        C988   1.402       .  A
C987       H1000   1.084       .  S
C988        C989   1.406       .  A
C988        C991   1.482       .  S
C989        C990   1.400       .  A
C989       H1001   1.082       .  S
C990       H1002   1.083       .  S
C991        C992   1.345       .  D
C991       H1003   1.087       .  S
C992        C993   1.483   1_545  S
C992       H1004   1.086   1_545  S
C993        C994   1.402       .  A
C993        C998   1.406   1_565  A
C994        C995   1.398       .  A
C994       H1005   1.083       .  S
C995        C996   1.407       .  A
C995       H1006   1.083       .  S
C996        C997   1.406       .  A
C997        C998   1.398   1_565  A
C997       H1007   1.083   1_565  S
C998       H1008   1.083       .  S
C1009      C1010   1.407       .  A
C1009      C1014   1.406       .  A
C1010      C1011   1.394       .  A
C1010      H1023   1.083       .  S
C1011      C1012   1.400       .  A
C1011      H1024   1.084       .  S
C1012      C1013   1.408       .  A
C1012      C1015   1.484       .  S
C1013      C1014   1.401       .  A
C1013      H1025   1.082       .  S
C1014      H1026   1.083       .  S
C1015      C1016   1.346       .  D
C1015      H1027   1.086       .  S
C1016      C1017   1.484       .  S
C1016      H1028   1.085       .  S
C1017      C1018   1.401       .  A
C1017      C1022   1.409       .  A
C1018      C1019   1.397       .  A
C1018      H1029   1.083       .  S
C1019      C1020   1.406       .  A
C1019      H1030   1.083       .  S
C1020      C1021   1.404       .  A
C1021      C1022   1.399       .  A
C1021      H1031   1.083       .  S
C1022      H1032   1.082       .  S
C1033      C1034   1.407       .  A
C1033      C1038   1.406       .  A
C1034      C1035   1.399       .  A
C1034      H1047   1.083       .  S
C1035      C1036   1.402       .  A
C1035      H1048   1.083       .  S
C1036      C1037   1.407       .  A
C1036      C1039   1.487       .  S
C1037      C1038   1.403       .  A
C1037      H1049   1.083       .  S
C1038      H1050   1.083       .  S
C1039      C1040   1.348       .  D
C1039      H1051   1.086       .  S
C1040      C1041   1.490       .  S
C1040      H1052   1.087       .  S
C1041      C1042   1.406       .  A
C1041      C1046   1.406       .  A
C1042      C1043   1.403       .  A
C1042      H1053   1.083       .  S
C1043      C1044   1.404       .  A
C1043      H1054   1.083       .  S
C1044      C1045   1.408       .  A
C1045      C1046   1.400       .  A
C1045      H1055   1.083       .  S
C1046      H1056   1.082       .  S
C1057      C1058   1.406       .  A
C1057      C1062   1.406       .  A
C1058      C1059   1.397       .  A
C1058      H1071   1.083       .  S
C1059      C1060   1.402       .  A
C1059      H1072   1.083       .  S
C1060      C1061   1.409       .  A
C1060      C1063   1.487       .  S
C1061      C1062   1.400       .  A
C1061      H1073   1.082       .  S
C1062      H1074   1.083       .  S
C1063      C1064   1.348       .  D
C1063      H1075   1.083       .  S
C1064      C1065   1.493       .  S
C1064      H1076   1.086       .  S
C1065      C1066   1.404       .  A
C1065      C1070   1.411       .  A
C1066      C1067   1.396       .  A
C1066      H1077   1.083       .  S
C1067      C1068   1.405       .  A
C1067      H1078   1.083       .  S
C1068      C1069   1.405       .  A
C1069      C1070   1.402       .  A
C1069      H1079   1.083       .  S
C1070      H1080   1.079       .  S
C1081      C1082   1.405       .  A
C1081      C1086   1.408       .  A
C1082      C1083   1.401       .  A
C1082      H1095   1.083       .  S
C1083      C1084   1.406       .  A
C1083      H1096   1.083       .  S
C1084      C1085   1.405       .  A
C1084      C1087   1.488       .  S
C1085      C1086   1.397       .  A
C1085      H1097   1.081       .  S
C1086      H1098   1.083       .  S
C1087      C1088   1.350       .  D
C1087      H1099   1.086       .  S
C1088      C1089   1.485       .  S
C1088      H1100   1.085       .  S
C1089      C1090   1.405       .  A
C1089      C1094   1.404       .  A
C1090      C1091   1.402       .  A
C1090      H1101   1.083       .  S
C1091      C1092   1.406       .  A
C1091      H1102   1.083       .  S
C1092      C1093   1.408       .  A
C1093      C1094   1.395       .  A
C1093      H1103   1.083       .  S
C1094      H1104   1.082       .  S
C1105      C1106   1.404       .  A
C1105      C1110   1.407       .  A
C1106      C1107   1.401       .  A
C1106      H1119   1.083       .  S
C1107      C1108   1.407       .  A
C1107      H1120   1.083       .  S
C1108      C1109   1.406       .  A
C1108      C1111   1.490       .  S
C1109      C1110   1.394       .  A
C1109      H1121   1.079       .  S
C1110      H1122   1.083       .  S
C1111      C1112   1.351       .  D
C1111      H1123   1.085       .  S
C1112      C1113   1.486       .  S
C1112      H1124   1.083       .  S
C1113      C1114   1.405       .  A
C1113      C1118   1.405       .  A
C1114      C1115   1.401       .  A
C1114      H1125   1.083       .  S
C1115      C1116   1.405       .  A
C1115      H1126   1.083       .  S
C1116      C1117   1.407       .  A
C1117      C1118   1.394       .  A
C1117      H1127   1.083       .  S
C1118      H1128   1.082       .  S
C1129      C1130   1.406       .  A
C1129      C1134   1.407       .  A
C1130      C1131   1.394       .  A
C1130      H1143   1.083       .  S
C1131      C1132   1.402       .  A
C1131      H1144   1.084       .  S
C1132      C1133   1.408       .  A
C1132      C1135   1.485       .  S
C1133      C1134   1.402       .  A
C1133      H1145   1.081       .  S
C1134      H1146   1.083       .  S
C1135      C1136   1.347       .  D
C1135      H1147   1.086       .  S
C1136      C1137   1.487       .  S
C1136      H1148   1.085       .  S
C1137      C1138   1.404       .  A
C1137      C1142   1.406       .  A
C1138      C1139   1.400       .  A
C1138      H1149   1.083       .  S
C1139      C1140   1.407       .  A
C1139      H1150   1.083       .  S
C1140      C1141   1.406       .  A
C1141      C1142   1.396       .  A
C1141      H1151   1.083       .  S
C1142      H1152   1.082       .  S
C1153      C1154   1.404       .  A
C1153      C1158   1.404       .  A
C1154      C1155   1.407       .  A
C1154      H1167   1.083       .  S
C1155      C1156   1.409       .  A
C1155      H1168   1.083       .  S
C1156      C1157   1.409       .  A
C1156      C1159   1.497       .  S
C1157      C1158   1.394       .  A
C1157      H1169   1.080       .  S
C1158      H1170   1.084       .  S
C1159      C1160   1.350       .  D
C1159      H1171   1.085       .  S
C1160      C1161   1.489       .  S
C1160      H1172   1.084       .  S
C1161      C1162   1.402       .  A
C1161      C1166   1.410       .  A
C1162      C1163   1.393       .  A
C1162      H1173   1.084       .  S
C1163      C1164   1.405       .  A
C1163      H1174   1.084   1_545  S
C1164      C1165   1.406       .  A
C1165      C1166   1.409       .  A
C1165      H1175   1.083       .  S
C1166      H1176   1.082       .  S
C1177      C1178   1.410       .  A
C1177      C1182   1.406       .  A
C1178      C1179   1.409       .  A
C1178      H1191   1.083       .  S
C1179      C1180   1.407       .  A
C1179      H1192   1.083       .  S
C1180      C1181   1.405       .  A
C1180      C1183   1.494       .  S
C1181      C1182   1.395       .  A
C1181      H1193   1.083       .  S
C1182      H1194   1.083       .  S
C1183      C1184   1.352       .  D
C1183      H1195   1.084       .  S
C1184      C1185   1.496       .  S
C1184      H1196   1.087       .  S
C1185      C1186   1.405       .  A
C1185      C1190   1.411       .  A
C1186      C1187   1.396       .  A
C1186      H1197   1.084       .  S
C1187      C1188   1.403       .  A
C1187      H1198   1.084       .  S
C1188      C1189   1.407       .  A
C1189      C1190   1.408       .  A
C1189      H1199   1.083       .  S
C1190      H1200   1.080       .  S
C1201      C1202   1.406       .  A
C1201      C1206   1.406       .  A
C1202      C1203   1.393       .  A
C1202      H1215   1.083       .  S
C1203      C1204   1.399       .  A
C1203      H1216   1.084       .  S
C1204      C1205   1.407       .  A
C1204      C1207   1.477       .  S
C1205      C1206   1.401       .  A
C1205      H1217   1.083       .  S
C1206      H1218   1.083       .  S
C1207      C1208   1.341       .  D
C1207      H1219   1.087       .  S
C1208      C1209   1.479       .  S
C1208      H1220   1.087       .  S
C1209      C1210   1.399       .  A
C1209      C1214   1.406       .  A
C1210      C1211   1.395       .  A
C1210      H1221   1.083       .  S
C1211      C1212   1.407       .  A
C1211      H1222   1.083       .  S
C1212      C1213   1.406       .  A
C1213      C1214   1.399       .  A
C1213      H1223   1.083       .  S
C1214      H1224   1.083       .  S
C1225      C1226   1.405   1_455  A
C1225      C1230   1.404       .  A
C1226      C1227   1.403       .  A
C1226      H1239   1.083       .  S
C1227      C1228   1.406       .  A
C1227      H1240   1.083       .  S
C1228      C1229   1.408   1_655  A
C1228      C1231   1.490       .  S
C1229      C1230   1.396       .  A
C1229      H1241   1.082       .  S
C1230      H1242   1.083       .  S
C1231      C1232   1.349       .  D
C1231      H1243   1.084       .  S
C1232      C1233   1.492       .  S
C1232      H1244   1.086       .  S
C1233      C1234   1.403       .  A
C1233      C1238   1.412       .  A
C1234      C1235   1.395       .  A
C1234      H1245   1.084       .  S
C1235      C1236   1.403       .  A
C1235      H1246   1.084       .  S
C1236      C1237   1.404       .  A
C1237      C1238   1.405       .  A
C1237      H1247   1.083       .  S
C1238      H1248   1.080       .  S
C1249      C1250   1.407       .  A
C1249      C1254   1.409       .  A
C1250      C1251   1.406       .  A
C1250      H1263   1.083   1_455  S
C1251      C1252   1.407       .  A
C1251      H1264   1.083       .  S
C1252      C1253   1.404       .  A
C1252      C1255   1.491       .  S
C1253      C1254   1.395       .  A
C1253      H1265   1.082       .  S
C1254      H1266   1.083       .  S
C1255      C1256   1.350       .  D
C1255      H1267   1.086       .  S
C1256      C1257   1.488       .  S
C1256      H1268   1.086       .  S
C1257      C1258   1.404       .  A
C1257      C1262   1.406       .  A
C1258      C1259   1.400       .  A
C1258      H1269   1.083       .  S
C1259      C1260   1.405       .  A
C1259      H1270   1.083       .  S
C1260      C1261   1.407       .  A
C1261      C1262   1.403       .  A
C1261      H1271   1.083       .  S
C1262      H1272   1.083       .  S
C1273      C1274   1.405       .  A
C1273      C1278   1.405       .  A
C1274      C1275   1.406       .  A
C1274      H1287   1.083       .  S
C1275      C1276   1.406       .  A
C1275      H1288   1.083       .  S
C1276      C1277   1.405       .  A
C1276      C1279   1.489       .  S
C1277      C1278   1.398       .  A
C1277      H1289   1.083       .  S
C1278      H1290   1.083       .  S
C1279      C1280   1.348       .  D
C1279      H1291   1.086       .  S
C1280      C1281   1.488       .  S
C1280      H1292   1.087       .  S
C1281      C1282   1.405       .  A
C1281      C1286   1.406       .  A
C1282      C1283   1.403       .  A
C1282      H1293   1.083       .  S
C1283      C1284   1.405       .  A
C1283      H1294   1.083       .  S
C1284      C1285   1.406       .  A
C1285      C1286   1.400       .  A
C1285      H1295   1.083       .  S
C1286      H1296   1.083       .  S
C1297      C1298   1.407       .  A
C1297      C1302   1.407       .  A
C1298      C1299   1.396       .  A
C1298      H1311   1.083       .  S
C1299      C1300   1.401       .  A
C1299      H1312   1.083       .  S
C1300      C1301   1.407       .  A
C1300      C1303   1.483       .  S
C1301      C1302   1.399       .  A
C1301      H1313   1.082       .  S
C1302      H1314   1.083       .  S
C1303      C1304   1.346       .  D
C1303      H1315   1.085       .  S
C1304      C1305   1.485       .  S
C1304      H1316   1.086       .  S
C1305      C1306   1.403       .  A
C1305      C1310   1.407       .  A
C1306      C1307   1.399       .  A
C1306      H1317   1.083       .  S
C1307      C1308   1.407       .  A
C1307      H1318   1.083       .  S
C1308      C1309   1.405       .  A
C1309      C1310   1.396       .  A
C1309      H1319   1.083       .  S
C1310      H1320   1.081       .  S
C1321      C1322   1.404   1_556  A
C1321      C1326   1.406       .  A
C1322      C1323   1.400       .  A
C1322      H1335   1.083       .  S
C1323      C1324   1.407   1_554  A
C1323      H1336   1.083       .  S
C1324      C1325   1.407       .  A
C1324      C1327   1.490       .  S
C1325      C1326   1.396       .  A
C1325      H1337   1.079       .  S
C1326      H1338   1.083       .  S
C1327      C1328   1.352       .  D
C1327      H1339   1.086   1_556  S
C1328      C1329   1.484       .  S
C1328      H1340   1.082       .  S
C1329      C1330   1.405       .  A
C1329      C1334   1.403       .  A
C1330      C1331   1.402       .  A
C1330      H1341   1.083       .  S
C1331      C1332   1.405       .  A
C1331      H1342   1.083       .  S
C1332      C1333   1.408       .  A
C1333      C1334   1.394       .  A
C1333      H1343   1.083       .  S
C1334      H1344   1.082       .  S
C1345      C1346   1.403       .  A
C1345      C1350   1.404       .  A
C1346      C1347   1.398       .  A
C1346      H1359   1.083       .  S
C1347      C1348   1.402       .  A
C1347      H1360   1.083       .  S
C1348      C1349   1.408       .  A
C1348      C1351   1.485       .  S
C1349      C1350   1.403       .  A
C1349      H1361   1.083       .  S
C1350      H1362   1.083       .  S
C1351      C1352   1.346       .  D
C1351      H1363   1.086       .  S
C1352      C1353   1.486       .  S
C1352      H1364   1.087       .  S
C1353      C1354   1.402       .  A
C1353      C1358   1.409       .  A
C1354      C1355   1.395       .  A
C1354      H1365   1.084       .  S
C1355      C1356   1.404       .  A
C1355      H1366   1.083       .  S
C1356      C1357   1.405       .  A
C1357      C1358   1.406       .  A
C1357      H1367   1.083       .  S
C1358      H1368   1.082       .  S
C1369      C1370   1.407       .  A
C1369      C1374   1.406       .  A
C1370      C1371   1.397       .  A
C1370      H1383   1.083       .  S
C1371      C1372   1.402       .  A
C1371      H1384   1.084       .  S
C1372      C1373   1.409       .  A
C1372      C1375   1.488       .  S
C1373      C1374   1.403       .  A
C1373      H1385   1.082       .  S
C1374      H1386   1.083       .  S
C1375      C1376   1.349       .  D
C1375      H1387   1.083       .  S
C1376      C1377   1.495       .  S
C1376      H1388   1.086       .  S
C1377      C1378   1.404   1_565  A
C1377      C1382   1.412       .  A
C1378      C1379   1.397       .  A
C1378      H1389   1.083       .  S
C1379      C1380   1.407       .  A
C1379      H1390   1.083       .  S
C1380      C1381   1.404       .  A
C1381      C1382   1.401   1_545  A
C1381      H1391   1.083       .  S
C1382      H1392   1.079       .  S
C1393      C1394   1.404       .  A
C1393      C1398   1.407       .  A
C1394      C1395   1.398       .  A
C1394      H1407   1.083       .  S
C1395      C1396   1.405       .  A
C1395      H1408   1.083       .  S
C1396      C1397   1.407       .  A
C1396      C1399   1.489   1_545  S
C1397      C1398   1.398       .  A
C1397      H1409   1.081   1_545  S
C1398      H1410   1.083       .  S
C1399      C1400   1.349       .  D
C1399      H1411   1.085       .  S
C1400      C1401   1.487       .  S
C1400      H1412   1.084       .  S
C1401      C1402   1.404       .  A
C1401      C1406   1.407       .  A
C1402      C1403   1.399       .  A
C1402      H1413   1.083       .  S
C1403      C1404   1.406       .  A
C1403      H1414   1.083       .  S
C1404      C1405   1.407       .  A
C1405      C1406   1.397       .  A
C1405      H1415   1.083   1_455  S
C1406      H1416   1.082       .  S
C1417      C1418   1.404       .  A
C1417      C1422   1.402       .  A
C1418      C1419   1.406   1_455  A
C1418      H1431   1.083       .  S
C1419      C1420   1.407       .  A
C1419      H1432   1.083       .  S
C1420      C1421   1.408   1_655  A
C1420      C1423   1.495       .  S
C1421      C1422   1.398       .  A
C1421      H1433   1.082       .  S
C1422      H1434   1.084       .  S
C1423      C1424   1.350       .  D
C1423      H1435   1.086       .  S
C1424      C1425   1.489       .  S
C1424      H1436   1.086   1_655  S
C1425      C1426   1.401   1_655  A
C1425      C1430   1.410       .  A
C1426      C1427   1.392   1_455  A
C1426      H1437   1.084       .  S
C1427      C1428   1.406       .  A
C1427      H1438   1.083   1_655  S
C1428      C1429   1.410       .  A
C1429      C1430   1.411       .  A
C1429      H1439   1.083       .  S
C1430      H1440   1.082       .  S
C1441      C1442   1.405   1_556  A
C1441      C1446   1.406       .  A
C1442      C1443   1.397       .  A
C1442      H1455   1.083       .  S
C1443      C1444   1.404   1_554  A
C1443      H1456   1.083       .  S
C1444      C1445   1.407       .  A
C1444      C1447   1.486       .  S
C1445      C1446   1.398       .  A
C1445      H1457   1.081       .  S
C1446      H1458   1.083       .  S
C1447      C1448   1.347       .  D
C1447      H1459   1.086   1_556  S
C1448      C1449   1.484       .  S
C1448      H1460   1.085       .  S
C1449      C1450   1.402   1_556  A
C1449      C1454   1.406       .  A
C1450      C1451   1.398       .  A
C1450      H1461   1.083       .  S
C1451      C1452   1.406   1_554  A
C1451      H1462   1.083       .  S
C1452      C1453   1.407       .  A
C1453      C1454   1.396       .  A
C1453      H1463   1.083       .  S
C1454      H1464   1.082       .  S
C1465      C1466   1.406   1_556  A
C1465      C1470   1.409       .  A
C1466      C1467   1.400       .  A
C1466      H1479   1.083       .  S
C1467      C1468   1.404   1_554  A
C1467      H1480   1.083       .  S
C1468      C1469   1.407       .  A
C1468      C1471   1.490       .  S
C1469      C1470   1.400       .  A
C1469      H1481   1.082       .  S
C1470      H1482   1.083       .  S
C1471      C1472   1.351   1_556  D
C1471      H1483   1.084       .  S
C1472      C1473   1.493       .  S
C1472      H1484   1.085       .  S
C1473      C1474   1.407       .  A
C1473      C1478   1.407   1_554  A
C1474      C1475   1.403       .  A
C1474      H1485   1.083       .  S
C1475      C1476   1.406       .  A
C1475      H1486   1.083       .  S
C1476      C1477   1.406   1_554  A
C1477      C1478   1.397       .  A
C1477      H1487   1.083       .  S
C1478      H1488   1.081       .  S
C1489      C1490   1.405       .  A
C1489      C1494   1.404       .  A
C1490      C1491   1.397       .  A
C1490      H1503   1.083       .  S
C1491      C1492   1.402       .  A
C1491      H1504   1.083       .  S
C1492      C1493   1.405       .  A
C1492      C1495   1.477       .  S
C1493      C1494   1.393       .  A
C1493      H1505   1.082       .  S
C1494      H1506   1.083       .  S
C1495      C1496   1.344       .  D
C1495      H1507   1.086       .  S
C1496      C1497   1.477       .  S
C1496      H1508   1.086       .  S
C1497      C1498   1.402       .  A
C1497      C1502   1.406       .  A
C1498      C1499   1.396       .  A
C1498      H1509   1.083       .  S
C1499      C1500   1.404       .  A
C1499      H1510   1.083       .  S
C1500      C1501   1.404       .  A
C1501      C1502   1.394       .  A
C1501      H1511   1.083       .  S
C1502      H1512   1.082       .  S
C1513      C1514   1.400       .  A
C1513      C1518   1.404       .  A
C1514      C1515   1.395       .  A
C1514      H1527   1.084       .  S
C1515      C1516   1.406       .  A
C1515      H1528   1.084       .  S
C1516      C1517   1.410       .  A
C1516      C1519   1.490   1_565  S
C1517      C1518   1.405       .  A
C1517      H1529   1.080   1_565  S
C1518      H1530   1.083       .  S
C1519      C1520   1.350       .  D
C1519      H1531   1.088       .  S
C1520      C1521   1.486       .  S
C1520      H1532   1.083       .  S
C1521      C1522   1.405       .  A
C1521      C1526   1.404       .  A
C1522      C1523   1.406       .  A
C1522      H1533   1.083       .  S
C1523      C1524   1.406       .  A
C1523      H1534   1.083       .  S
C1524      C1525   1.404       .  A
C1525      C1526   1.393       .  A
C1525      H1535   1.084       .  S
C1526      H1536   1.083       .  S
C1537      C1538   1.402       .  A
C1537      C1542   1.402       .  A
C1538      C1539   1.402       .  A
C1538      H1551   1.083       .  S
C1539      C1540   1.407       .  A
C1539      H1552   1.083       .  S
C1540      C1541   1.408       .  A
C1540      C1543   1.491       .  S
C1541      C1542   1.398       .  A
C1541      H1553   1.081       .  S
C1542      H1554   1.084       .  S
C1543      C1544   1.349       .  D
C1543      H1555   1.086       .  S
C1544      C1545   1.489       .  S
C1544      H1556   1.085       .  S
C1545      C1546   1.406       .  A
C1545      C1550   1.407       .  A
C1546      C1547   1.404       .  A
C1546      H1557   1.083       .  S
C1547      C1548   1.405       .  A
C1547      H1558   1.083       .  S
C1548      C1549   1.404       .  A
C1549      C1550   1.398       .  A
C1549      H1559   1.083       .  S
C1550      H1560   1.082       .  S
C1561      C1562   1.408       .  A
C1561      C1566   1.406       .  A
C1562      C1563   1.408       .  A
C1562      H1575   1.083       .  S
C1563      C1564   1.407       .  A
C1563      H1576   1.083       .  S
C1564      C1565   1.408       .  A
C1564      C1567   1.497       .  S
C1565      C1566   1.398       .  A
C1565      H1577   1.082   1_565  S
C1566      H1578   1.083   1_565  S
C1567      C1568   1.350   1_565  D
C1567      H1579   1.084       .  S
C1568      C1569   1.496       .  S
C1568      H1580   1.086       .  S
C1569      C1570   1.404       .  A
C1569      C1574   1.413       .  A
C1570      C1571   1.394       .  A
C1570      H1581   1.083       .  S
C1571      C1572   1.401       .  A
C1571      H1582   1.084       .  S
C1572      C1573   1.406       .  A
C1573      C1574   1.410       .  A
C1573      H1583   1.083       .  S
C1574      H1584   1.081   1_545  S
C1585      C1586   1.407       .  A
C1585      C1590   1.406       .  A
C1586      C1587   1.401       .  A
C1586      H1599   1.083       .  S
C1587      C1588   1.404       .  A
C1587      H1600   1.083       .  S
C1588      C1589   1.405       .  A
C1588      C1591   1.483       .  S
C1589      C1590   1.392       .  A
C1589      H1601   1.082       .  S
C1590      H1602   1.083       .  S
C1591      C1592   1.347       .  D
C1591      H1603   1.085       .  S
C1592      C1593   1.482       .  S
C1592      H1604   1.086       .  S
C1593      C1594   1.402       .  A
C1593      C1598   1.407       .  A
C1594      C1595   1.395       .  A
C1594      H1605   1.084       .  S
C1595      C1596   1.406       .  A
C1595      H1606   1.083       .  S
C1596      C1597   1.407       .  A
C1597      C1598   1.398       .  A
C1597      H1607   1.083       .  S
C1598      H1608   1.081       .  S
C1609      C1610   1.406       .  A
C1609      C1614   1.405       .  A
C1610      C1611   1.400       .  A
C1610      H1623   1.083       .  S
C1611      C1612   1.402       .  A
C1611      H1624   1.083       .  S
C1612      C1613   1.406       .  A
C1612      C1615   1.481       .  S
C1613      C1614   1.398       .  A
C1613      H1625   1.083       .  S
C1614      H1626   1.083       .  S
C1615      C1616   1.341       .  D
C1615      H1627   1.087       .  S
C1616      C1617   1.481       .  S
C1616      H1628   1.087       .  S
C1617      C1618   1.401       .  A
C1617      C1622   1.407   1_455  A
C1618      C1619   1.398   1_455  A
C1618      H1629   1.083       .  S
C1619      C1620   1.405       .  A
C1619      H1630   1.084       .  S
C1620      C1621   1.404       .  A
C1621      C1622   1.400       .  A
C1621      H1631   1.083       .  S
C1622      H1632   1.083       .  S
C1633      C1634   1.406       .  A
C1633      C1638   1.404       .  A
C1634      C1635   1.406       .  A
C1634      H1647   1.083       .  S
C1635      C1636   1.407       .  A
C1635      H1648   1.083       .  S
C1636      C1637   1.409       .  A
C1636      C1639   1.497       .  S
C1637      C1638   1.398       .  A
C1637      H1649   1.082       .  S
C1638      H1650   1.083       .  S
C1639      C1640   1.350       .  D
C1639      H1651   1.086       .  S
C1640      C1641   1.491   1_565  S
C1640      H1652   1.086   1_565  S
C1641      C1642   1.401       .  A
C1641      C1646   1.411   1_545  A
C1642      C1643   1.391       .  A
C1642      H1653   1.084       .  S
C1643      C1644   1.406       .  A
C1643      H1654   1.083       .  S
C1644      C1645   1.409       .  A
C1645      C1646   1.412   1_545  A
C1645      H1655   1.083       .  S
C1646      H1656   1.082       .  S
C1657      C1658   1.406       .  A
C1657      C1662   1.408       .  A
C1658      C1659   1.393       .  A
C1658      H1671   1.083       .  S
C1659      C1660   1.402       .  A
C1659      H1672   1.084       .  S
C1660      C1661   1.409       .  A
C1660      C1663   1.486       .  S
C1661      C1662   1.407       .  A
C1661      H1673   1.082       .  S
C1662      H1674   1.083       .  S
C1663      C1664   1.349       .  D
C1663      H1675   1.086       .  S
C1664      C1665   1.492       .  S
C1664      H1676   1.086       .  S
C1665      C1666   1.406       .  A
C1665      C1670   1.408       .  A
C1666      C1667   1.403       .  A
C1666      H1677   1.083       .  S
C1667      C1668   1.404       .  A
C1667      H1678   1.083       .  S
C1668      C1669   1.403       .  A
C1669      C1670   1.395       .  A
C1669      H1679   1.084   1_455  S
C1670      H1680   1.082       .  S
C1681      C1682   1.407       .  A
C1681      C1686   1.407       .  A
C1682      C1683   1.400       .  A
C1682      H1695   1.083       .  S
C1683      C1684   1.404   1_455  A
C1683      H1696   1.083       .  S
C1684      C1685   1.408       .  A
C1684      C1687   1.491       .  S
C1685      C1686   1.400   1_655  A
C1685      H1697   1.081       .  S
C1686      H1698   1.083       .  S
C1687      C1688   1.348       .  D
C1687      H1699   1.086       .  S
C1688      C1689   1.488       .  S
C1688      H1700   1.085       .  S
C1689      C1690   1.402       .  A
C1689      C1694   1.408       .  A
C1690      C1691   1.399       .  A
C1690      H1701   1.083       .  S
C1691      C1692   1.407       .  A
C1691      H1702   1.083       .  S
C1692      C1693   1.406       .  A
C1693      C1694   1.402       .  A
C1693      H1703   1.083       .  S
C1694      H1704   1.082       .  S
C1705      C1706   1.406       .  A
C1705      C1710   1.407       .  A
C1706      C1707   1.403       .  A
C1706      H1719   1.083       .  S
C1707      C1708   1.406       .  A
C1707      H1720   1.083       .  S
C1708      C1709   1.405       .  A
C1708      C1711   1.488       .  S
C1709      C1710   1.398       .  A
C1709      H1721   1.082       .  S
C1710      H1722   1.083       .  S
C1711      C1712   1.348       .  D
C1711      H1723   1.087       .  S
C1712      C1713   1.484       .  S
C1712      H1724   1.086       .  S
C1713      C1714   1.402       .  A
C1713      C1718   1.406       .  A
C1714      C1715   1.398       .  A
C1714      H1725   1.083       .  S
C1715      C1716   1.406       .  A
C1715      H1726   1.083       .  S
C1716      C1717   1.407       .  A
C1717      C1718   1.401       .  A
C1717      H1727   1.083       .  S
C1718      H1728   1.083       .  S
C1729      C1730   1.405       .  A
C1729      C1734   1.406       .  A
C1730      C1731   1.395       .  A
C1730      H1743   1.083       .  S
C1731      C1732   1.402       .  A
C1731      H1744   1.083       .  S
C1732      C1733   1.407       .  A
C1732      C1735   1.482       .  S
C1733      C1734   1.400       .  A
C1733      H1745   1.082       .  S
C1734      H1746   1.083       .  S
C1735      C1736   1.345       .  D
C1735      H1747   1.087       .  S
C1736      C1737   1.483       .  S
C1736      H1748   1.086       .  S
C1737      C1738   1.402       .  A
C1737      C1742   1.406       .  A
C1738      C1739   1.400       .  A
C1738      H1749   1.083       .  S
C1739      C1740   1.406       .  A
C1739      H1750   1.083       .  S
C1740      C1741   1.406       .  A
C1741      C1742   1.398       .  A
C1741      H1751   1.083       .  S
C1742      H1752   1.083       .  S
C1753      C1754   1.405       .  A
C1753      C1758   1.403       .  A
C1754      C1755   1.400       .  A
C1754      H1767   1.084       .  S
C1755      C1756   1.403       .  A
C1755      H1768   1.083       .  S
C1756      C1757   1.407       .  A
C1756      C1759   1.484       .  S
C1757      C1758   1.399       .  A
C1757      H1769   1.083       .  S
C1758      H1770   1.083       .  S
C1759      C1760   1.343       .  D
C1759      H1771   1.087       .  S
C1760      C1761   1.482       .  S
C1760      H1772   1.087       .  S
C1761      C1762   1.402       .  A
C1761      C1766   1.406       .  A
C1762      C1763   1.399       .  A
C1762      H1773   1.083       .  S
C1763      C1764   1.405       .  A
C1763      H1774   1.083       .  S
C1764      C1765   1.405       .  A
C1765      C1766   1.400       .  A
C1765      H1775   1.083       .  S
C1766      H1776   1.083       .  S
C1777      C1778   1.404       .  A
C1777      C1782   1.408       .  A
C1778      C1779   1.393       .  A
C1778      H1791   1.083   1_455  S
C1779      C1780   1.402       .  A
C1779      H1792   1.084       .  S
C1780      C1781   1.410       .  A
C1780      C1783   1.490       .  S
C1781      C1782   1.409       .  A
C1781      H1793   1.082       .  S
C1782      H1794   1.083       .  S
C1783      C1784   1.350       .  D
C1783      H1795   1.085       .  S
C1784      C1785   1.496       .  S
C1784      H1796   1.085       .  S
C1785      C1786   1.407       .  A
C1785      C1790   1.409       .  A
C1786      C1787   1.404       .  A
C1786      H1797   1.083       .  S
C1787      C1788   1.404       .  A
C1787      H1798   1.083       .  S
C1788      C1789   1.403       .  A
C1789      C1790   1.397       .  A
C1789      H1799   1.083       .  S
C1790      H1800   1.082       .  S
C1801      C1802   1.407       .  A
C1801      C1806   1.409       .  A
C1802      C1803   1.400       .  A
C1802      H1815   1.083       .  S
C1803      C1804   1.404       .  A
C1803      H1816   1.083       .  S
C1804      C1805   1.407       .  A
C1804      C1807   1.490       .  S
C1805      C1806   1.401       .  A
C1805      H1817   1.082       .  S
C1806      H1818   1.083       .  S
C1807      C1808   1.350       .  D
C1807      H1819   1.084       .  S
C1808      C1809   1.494       .  S
C1808      H1820   1.086       .  S
C1809      C1810   1.406       .  A
C1809      C1814   1.408       .  A
C1810      C1811   1.401       .  A
C1810      H1821   1.083       .  S
C1811      C1812   1.406       .  A
C1811      H1822   1.083   1_545  S
C1812      C1813   1.407       .  A
C1813      C1814   1.399       .  A
C1813      H1823   1.083       .  S
C1814      H1824   1.081       .  S
C1825      C1826   1.408       .  A
C1825      C1830   1.405       .  A
C1826      C1827   1.396       .  A
C1826      H1839   1.083   1_545  S
C1827      C1828   1.401       .  A
C1827      H1840   1.084       .  S
C1828      C1829   1.409       .  A
C1828      C1831   1.485       .  S
C1829      C1830   1.398       .  A
C1829      H1841   1.081       .  S
C1830      H1842   1.083       .  S
C1831      C1832   1.346       .  D
C1831      H1843   1.086       .  S
C1832      C1833   1.482       .  S
C1832      H1844   1.085       .  S
C1833      C1834   1.400   1_655  A
C1833      C1838   1.409   1_655  A
C1834      C1835   1.393       .  A
C1834      H1845   1.084   1_455  S
C1835      C1836   1.406       .  A
C1835      H1846   1.083       .  S
C1836      C1837   1.404       .  A
C1837      C1838   1.401       .  A
C1837      H1847   1.083       .  S
C1838      H1848   1.082       .  S
C1849      C1850   1.407       .  A
C1849      C1854   1.403       .  A
C1850      C1851   1.404       .  A
C1850      H1863   1.083       .  S
C1851      C1852   1.405       .  A
C1851      H1864   1.083       .  S
C1852      C1853   1.407       .  A
C1852      C1855   1.489       .  S
C1853      C1854   1.393       .  A
C1853      H1865   1.082       .  S
C1854      H1866   1.083       .  S
C1855      C1856   1.348       .  D
C1855      H1867   1.084       .  S
C1856      C1857   1.489       .  S
C1856      H1868   1.087       .  S
C1857      C1858   1.403       .  A
C1857      C1862   1.412       .  A
C1858      C1859   1.392       .  A
C1858      H1869   1.084       .  S
C1859      C1860   1.402       .  A
C1859      H1870   1.084       .  S
C1860      C1861   1.404       .  A
C1861      C1862   1.408       .  A
C1861      H1871   1.083       .  S
C1862      H1872   1.081       .  S
C1873      C1874   1.405       .  A
C1873      C1878   1.404       .  A
C1874      C1875   1.394       .  A
C1874      H1887   1.083       .  S
C1875      C1876   1.399       .  A
C1875      H1888   1.083       .  S
C1876      C1877   1.408       .  A
C1876      C1879   1.479       .  S
C1877      C1878   1.401       .  A
C1877      H1889   1.083       .  S
C1878      H1890   1.083       .  S
C1879      C1880   1.345       .  D
C1879      H1891   1.084       .  S
C1880      C1881   1.485       .  S
C1880      H1892   1.087       .  S
C1881      C1882   1.402       .  A
C1881      C1886   1.410       .  A
C1882      C1883   1.395       .  A
C1882      H1893   1.083       .  S
C1883      C1884   1.405       .  A
C1883      H1894   1.083       .  S
C1884      C1885   1.404       .  A
C1885      C1886   1.400       .  A
C1885      H1895   1.083       .  S
C1886      H1896   1.081       .  S
C1897      C1898   1.404       .  A
C1897      C1902   1.406       .  A
C1898      C1899   1.400       .  A
C1898      H1911   1.083       .  S
C1899      C1900   1.406       .  A
C1899      H1912   1.083       .  S
C1900      C1901   1.406       .  A
C1900      C1903   1.487       .  S
C1901      C1902   1.395       .  A
C1901      H1913   1.081       .  S
C1902      H1914   1.083       .  S
C1903      C1904   1.350       .  D
C1903      H1915   1.086       .  S
C1904      C1905   1.485       .  S
C1904      H1916   1.084       .  S
C1905      C1906   1.404       .  A
C1905      C1910   1.405       .  A
C1906      C1907   1.400       .  A
C1906      H1917   1.083       .  S
C1907      C1908   1.406       .  A
C1907      H1918   1.083       .  S
C1908      C1909   1.408       .  A
C1909      C1910   1.395       .  A
C1909      H1919   1.083       .  S
C1910      H1920   1.082       .  S
C1921      C1922   1.405       .  A
C1921      C1926   1.407       .  A
C1922      C1923   1.394       .  A
C1922      H1935   1.083       .  S
C1923      C1924   1.402       .  A
C1923      H1936   1.084       .  S
C1924      C1925   1.408       .  A
C1924      C1927   1.483       .  S
C1925      C1926   1.400       .  A
C1925      H1937   1.081       .  S
C1926      H1938   1.083       .  S
C1927      C1928   1.347       .  D
C1927      H1939   1.085       .  S
C1928      C1929   1.485       .  S
C1928      H1940   1.085       .  S
C1929      C1930   1.403       .  A
C1929      C1934   1.407       .  A
C1930      C1931   1.399       .  A
C1930      H1941   1.083       .  S
C1931      C1932   1.407       .  A
C1931      H1942   1.083       .  S
C1932      C1933   1.405       .  A
C1933      C1934   1.394       .  A
C1933      H1943   1.083       .  S
C1934      H1944   1.081       .  S
C1945      C1946   1.400       .  A
C1945      C1950   1.406       .  A
C1946      C1947   1.394       .  A
C1946      H1959   1.084       .  S
C1947      C1948   1.405       .  A
C1947      H1960   1.084       .  S
C1948      C1949   1.408       .  A
C1948      C1951   1.488       .  S
C1949      C1950   1.405       .  A
C1949      H1961   1.081       .  S
C1950      H1962   1.083       .  S
C1951      C1952   1.351       .  D
C1951      H1963   1.088       .  S
C1952      C1953   1.489       .  S
C1952      H1964   1.084       .  S
C1953      C1954   1.407       .  A
C1953      C1958   1.402       .  A
C1954      C1955   1.410       .  A
C1954      H1965   1.083       .  S
C1955      C1956   1.409       .  A
C1955      H1966   1.083       .  S
C1956      C1957   1.408       .  A
C1957      C1958   1.390       .  A
C1957      H1967   1.083       .  S
C1958      H1968   1.083       .  S
C1969      C1970   1.405       .  A
C1969      C1974   1.404       .  A
C1970      C1971   1.399       .  A
C1970      H1983   1.084       .  S
C1971      C1972   1.402       .  A
C1971      H1984   1.083       .  S
C1972      C1973   1.406       .  A
C1972      C1975   1.479       .  S
C1973      C1974   1.399       .  A
C1973      H1985   1.083       .  S
C1974      H1986   1.083       .  S
C1975      C1976   1.341       .  D
C1975      H1987   1.087       .  S
C1976      C1977   1.477       .  S
C1976      H1988   1.087       .  S
C1977      C1978   1.401       .  A
C1977      C1982   1.404       .  A
C1978      C1979   1.401       .  A
C1978      H1989   1.083       .  S
C1979      C1980   1.406       .  A
C1979      H1990   1.083       .  S
C1980      C1981   1.403       .  A
C1981      C1982   1.397       .  A
C1981      H1991   1.083       .  S
C1982      H1992   1.083       .  S
C1993      C1994   1.406       .  A
C1993      C1998   1.407       .  A
C1994      C1995   1.397       .  A
C1994      H2007   1.083       .  S
C1995      C1996   1.403       .  A
C1995      H2008   1.083       .  S
C1996      C1997   1.410       .  A
C1996      C1999   1.492       .  S
C1997      C1998   1.404       .  A
C1997      H2009   1.081       .  S
C1998      H2010   1.083       .  S
C1999      C2000   1.349       .  D
C1999      H2011   1.084       .  S
C2000      C2001   1.495       .  S
C2000      H2012   1.085       .  S
C2001      C2002   1.405       .  A
C2001      C2006   1.410       .  A
C2002      C2003   1.400       .  A
C2002      H2013   1.083       .  S
C2003      C2004   1.407       .  A
C2003      H2014   1.083       .  S
C2004      C2005   1.407       .  A
C2005      C2006   1.401       .  A
C2005      H2015   1.083       .  S
C2006      H2016   1.080       .  S
C2017      C2018   1.405       .  A
C2017      C2022   1.401       .  A
C2018      C2019   1.399       .  A
C2018      H2031   1.084       .  S
C2019      C2020   1.401       .  A
C2019      H2032   1.083       .  S
C2020      C2021   1.406       .  A
C2020      C2023   1.477       .  S
C2021      C2022   1.397       .  A
C2021      H2033   1.083       .  S
C2022      H2034   1.083       .  S
C2023      C2024   1.340       .  D
C2023      H2035   1.087       .  S
C2024      C2025   1.477       .  S
C2024      H2036   1.087       .  S
C2025      C2026   1.400       .  A
C2025      C2030   1.406       .  A
C2026      C2027   1.398       .  A
C2026      H2037   1.083       .  S
C2027      C2028   1.404       .  A
C2027      H2038   1.084       .  S
C2028      C2029   1.403       .  A
C2029      C2030   1.399       .  A
C2029      H2039   1.083       .  S
C2030      H2040   1.083       .  S
C2041      C2042   1.407       .  A
C2041      C2046   1.406       .  A
C2042      C2043   1.395       .  A
C2042      H2055   1.083       .  S
C2043      C2044   1.401       .  A
C2043      H2056   1.084       .  S
C2044      C2045   1.410       .  A
C2044      C2047   1.487       .  S
C2045      C2046   1.405       .  A
C2045      H2057   1.082       .  S
C2046      H2058   1.083       .  S
C2047      C2048   1.348       .  D
C2047      H2059   1.084       .  S
C2048      C2049   1.493       .  S
C2048      H2060   1.086       .  S
C2049      C2050   1.405       .  A
C2049      C2054   1.409       .  A
C2050      C2051   1.400       .  A
C2050      H2061   1.083       .  S
C2051      C2052   1.407       .  A
C2051      H2062   1.083       .  S
C2052      C2053   1.406       .  A
C2053      C2054   1.399       .  A
C2053      H2063   1.083       .  S
C2054      H2064   1.081       .  S
C2065      C2066   1.404       .  A
C2065      C2070   1.406       .  A
C2066      C2067   1.405       .  A
C2066      H2079   1.083       .  S
C2067      C2068   1.408       .  A
C2067      H2080   1.083       .  S
C2068      C2069   1.404       .  A
C2068      C2071   1.486       .  S
C2069      C2070   1.389       .  A
C2069      H2081   1.081       .  S
C2070      H2082   1.083       .  S
C2071      C2072   1.351       .  D
C2071      H2083   1.085       .  S
C2072      C2073   1.487       .  S
C2072      H2084   1.085       .  S
C2073      C2074   1.408       .  A
C2073      C2078   1.405       .  A
C2074      C2075   1.404       .  A
C2074      H2085   1.083       .  S
C2075      C2076   1.402       .  A
C2075      H2086   1.083       .  S
C2076      C2077   1.406       .  A
C2077      C2078   1.393       .  A
C2077      H2087   1.084       .  S
C2078      H2088   1.081       .  S
C2089      C2090   1.404       .  A
C2089      C2094   1.405   1_655  A
C2090      C2091   1.391       .  A
C2090      H2103   1.083       .  S
C2091      C2092   1.399   1_655  A
C2091      H2104   1.084       .  S
C2092      C2093   1.407       .  A
C2092      C2095   1.476       .  S
C2093      C2094   1.399       .  A
C2093      H2105   1.082       .  S
C2094      H2106   1.083       .  S
C2095      C2096   1.342       .  D
C2095      H2107   1.087       .  S
C2096      C2097   1.477       .  S
C2096      H2108   1.086       .  S
C2097      C2098   1.400       .  A
C2097      C2102   1.407       .  A
C2098      C2099   1.394       .  A
C2098      H2109   1.083       .  S
C2099      C2100   1.406       .  A
C2099      H2110   1.083       .  S
C2100      C2101   1.404       .  A
C2101      C2102   1.395       .  A
C2101      H2111   1.083       .  S
C2102      H2112   1.082       .  S
C2113      C2114   1.407       .  A
C2113      C2118   1.408       .  A
C2114      C2115   1.396       .  A
C2114      H2127   1.083       .  S
C2115      C2116   1.403       .  A
C2115      H2128   1.084       .  S
C2116      C2117   1.411       .  A
C2116      C2119   1.495       .  S
C2117      C2118   1.407       .  A
C2117      H2129   1.081       .  S
C2118      H2130   1.083       .  S
C2119      C2120   1.349       .  D
C2119      H2131   1.086       .  S
C2120      C2121   1.494       .  S
C2120      H2132   1.084       .  S
C2121      C2122   1.402       .  A
C2121      C2126   1.411       .  A
C2122      C2123   1.400       .  A
C2122      H2133   1.083       .  S
C2123      C2124   1.409       .  A
C2123      H2134   1.083       .  S
C2124      C2125   1.406       .  A
C2125      C2126   1.404       .  A
C2125      H2135   1.083       .  S
C2126      H2136   1.082       .  S
C2137      C2138   1.403       .  A
C2137      C2142   1.403       .  A
C2138      C2139   1.391       .  A
C2138      H2151   1.084       .  S
C2139      C2140   1.400       .  A
C2139      H2152   1.084       .  S
C2140      C2141   1.412       .  A
C2140      C2143   1.485       .  S
C2141      C2142   1.407       .  A
C2141      H2153   1.081       .  S
C2142      H2154   1.083       .  S
C2143      C2144   1.344       .  D
C2143      H2155   1.088       .  S
C2144      C2145   1.484       .  S
C2144      H2156   1.085       .  S
C2145      C2146   1.403       .  A
C2145      C2150   1.407       .  A
C2146      C2147   1.402       .  A
C2146      H2157   1.083       .  S
C2147      C2148   1.405       .  A
C2147      H2158   1.083       .  S
C2148      C2149   1.401       .  A
C2149      C2150   1.394       .  A
C2149      H2159   1.083       .  S
C2150      H2160   1.083       .  S
C2161      C2162   1.407       .  A
C2161      C2166   1.407       .  A
C2162      C2163   1.400       .  A
C2162      H2175   1.083       .  S
C2163      C2164   1.403       .  A
C2163      H2176   1.083       .  S
C2164      C2165   1.406       .  A
C2164      C2167   1.485       .  S
C2165      C2166   1.396       .  A
C2165      H2177   1.082       .  S
C2166      H2178   1.083       .  S
C2167      C2168   1.350       .  D
C2167      H2179   1.083       .  S
C2168      C2169   1.489       .  S
C2168      H2180   1.086       .  S
C2169      C2170   1.406       .  A
C2169      C2174   1.408       .  A
C2170      C2171   1.398       .  A
C2170      H2181   1.083       .  S
C2171      C2172   1.403       .  A
C2171      H2182   1.083       .  S
C2172      C2173   1.406       .  A
C2173      C2174   1.397       .  A
C2173      H2183   1.083       .  S
C2174      H2184   1.080       .  S
C2185      C2186   1.405       .  A
C2185      C2190   1.406       .  A
C2186      C2187   1.402       .  A
C2186      H2199   1.083       .  S
C2187      C2188   1.407       .  A
C2187      H2200   1.083       .  S
C2188      C2189   1.408       .  A
C2188      C2191   1.494       .  S
C2189      C2190   1.397       .  A
C2189      H2201   1.080       .  S
C2190      H2202   1.083       .  S
C2191      C2192   1.351       .  D
C2191      H2203   1.086       .  S
C2192      C2193   1.486       .  S
C2192      H2204   1.083       .  S
C2193      C2194   1.404       .  A
C2193      C2198   1.405       .  A
C2194      C2195   1.400       .  A
C2194      H2205   1.083       .  S
C2195      C2196   1.406       .  A
C2195      H2206   1.083       .  S
C2196      C2197   1.409       .  A
C2197      C2198   1.399       .  A
C2197      H2207   1.083       .  S
C2198      H2208   1.082       .  S
C2209      C2210   1.404       .  A
C2209      C2214   1.405       .  A
C2210      C2211   1.399       .  A
C2210      H2223   1.083       .  S
C2211      C2212   1.404       .  A
C2211      H2224   1.083       .  S
C2212      C2213   1.405       .  A
C2212      C2215   1.482       .  S
C2213      C2214   1.399       .  A
C2213      H2225   1.083       .  S
C2214      H2226   1.084       .  S
C2215      C2216   1.347       .  D
C2215      H2227   1.087       .  S
C2216      C2217   1.481       .  S
C2216      H2228   1.087       .  S
C2217      C2218   1.405       .  A
C2217      C2222   1.403       .  A
C2218      C2219   1.401       .  A
C2218      H2229   1.083       .  S
C2219      C2220   1.405       .  A
C2219      H2230   1.084       .  S
C2220      C2221   1.403       .  A
C2221      C2222   1.398       .  A
C2221      H2231   1.083       .  S
C2222      H2232   1.083       .  S
C2233      C2234   1.406       .  A
C2233      C2238   1.407       .  A
C2234      C2235   1.400       .  A
C2234      H2247   1.083       .  S
C2235      C2236   1.404       .  A
C2235      H2248   1.083       .  S
C2236      C2237   1.405       .  A
C2236      C2239   1.485       .  S
C2237      C2238   1.396       .  A
C2237      H2249   1.082       .  S
C2238      H2250   1.083       .  S
C2239      C2240   1.351       .  D
C2239      H2251   1.083       .  S
C2240      C2241   1.490       .  S
C2240      H2252   1.085       .  S
C2241      C2242   1.407       .  A
C2241      C2246   1.407       .  A
C2242      C2243   1.400       .  A
C2242      H2253   1.083       .  S
C2243      C2244   1.405       .  A
C2243      H2254   1.083       .  S
C2244      C2245   1.406       .  A
C2245      C2246   1.395       .  A
C2245      H2255   1.083       .  S
C2246      H2256   1.079       .  S
C2257      C2258   1.406       .  A
C2257      C2262   1.409       .  A
C2258      C2259   1.401       .  A
C2258      H2271   1.083       .  S
C2259      C2260   1.404       .  A
C2259      H2272   1.083       .  S
C2260      C2261   1.404       .  A
C2260      C2263   1.485       .  S
C2261      C2262   1.397       .  A
C2261      H2273   1.083       .  S
C2262      H2274   1.083       .  S
C2263      C2264   1.350       .  D
C2263      H2275   1.085       .  S
C2264      C2265   1.487       .  S
C2264      H2276   1.086       .  S
C2265      C2266   1.406       .  A
C2265      C2270   1.405       .  A
C2266      C2267   1.402       .  A
C2266      H2277   1.083       .  S
C2267      C2268   1.406       .  A
C2267      H2278   1.083       .  S
C2268      C2269   1.407       .  A
C2269      C2270   1.395       .  A
C2269      H2279   1.083       .  S
C2270      H2280   1.082       .  S
C2281      C2282   1.405       .  A
C2281      C2286   1.407       .  A
C2282      C2283   1.394       .  A
C2282      H2295   1.083   1_545  S
C2283      C2284   1.401       .  A
C2283      H2296   1.084       .  S
C2284      C2285   1.407       .  A
C2284      C2287   1.480       .  S
C2285      C2286   1.399       .  A
C2285      H2297   1.082       .  S
C2286      H2298   1.083       .  S
C2287      C2288   1.345       .  D
C2287      H2299   1.086       .  S
C2288      C2289   1.483       .  S
C2288      H2300   1.086       .  S
C2289      C2290   1.402       .  A
C2289      C2294   1.406       .  A
C2290      C2291   1.398       .  A
C2290      H2301   1.083       .  S
C2291      C2292   1.407       .  A
C2291      H2302   1.083       .  S
C2292      C2293   1.406       .  A
C2293      C2294   1.396       .  A
C2293      H2303   1.083       .  S
C2294      H2304   1.082       .  S
C2305      C2306   1.404       .  A
C2305      C2310   1.404       .  A
C2306      C2307   1.406       .  A
C2306      H2319   1.083       .  S
C2307      C2308   1.407       .  A
C2307      H2320   1.083       .  S
C2308      C2309   1.409       .  A
C2308      C2311   1.497       .  S
C2309      C2310   1.400       .  A
C2309      H2321   1.082       .  S
C2310      H2322   1.083       .  S
C2311      C2312   1.351       .  D
C2311      H2323   1.086       .  S
C2312      C2313   1.492       .  S
C2312      H2324   1.086       .  S
C2313      C2314   1.401       .  A
C2313      C2318   1.410       .  A
C2314      C2315   1.394       .  A
C2314      H2325   1.084       .  S
C2315      C2316   1.407       .  A
C2315      H2326   1.083   1_455  S
C2316      C2317   1.409       .  A
C2317      C2318   1.410       .  A
C2317      H2327   1.083       .  S
C2318      H2328   1.082       .  S
C2329      C2330   1.406   1_565  A
C2329      C2334   1.407       .  A
C2330      C2331   1.393       .  A
C2330      H2343   1.083       .  S
C2331      C2332   1.402       .  A
C2331      H2344   1.084       .  S
C2332      C2333   1.410   1_545  A
C2332      C2335   1.490       .  S
C2333      C2334   1.407       .  A
C2333      H2345   1.081       .  S
C2334      H2346   1.083       .  S
C2335      C2336   1.350       .  D
C2335      H2347   1.085       .  S
C2336      C2337   1.493       .  S
C2336      H2348   1.085   1_545  S
C2337      C2338   1.406       .  A
C2337      C2342   1.409       .  A
C2338      C2339   1.404       .  A
C2338      H2349   1.083   1_545  S
C2339      C2340   1.403       .  A
C2339      H2350   1.083       .  S
C2340      C2341   1.402       .  A
C2341      C2342   1.397       .  A
C2341      H2351   1.084       .  S
C2342      H2352   1.082       .  S
C2353      C2354   1.401       .  A
C2353      C2358   1.404       .  A
C2354      C2355   1.404       .  A
C2354      H2367   1.083       .  S
C2355      C2356   1.409       .  A
C2355      H2368   1.083       .  S
C2356      C2357   1.406       .  A
C2356      C2359   1.489       .  S
C2357      C2358   1.394       .  A
C2357      H2369   1.081       .  S
C2358      H2370   1.084       .  S
C2359      C2360   1.352       .  D
C2359      H2371   1.087       .  S
C2360      C2361   1.487       .  S
C2360      H2372   1.085       .  S
C2361      C2362   1.408       .  A
C2361      C2366   1.402       .  A
C2362      C2363   1.407       .  A
C2362      H2373   1.083       .  S
C2363      C2364   1.407       .  A
C2363      H2374   1.083       .  S
C2364      C2365   1.409       .  A
C2365      C2366   1.390       .  A
C2365      H2375   1.083       .  S
C2366      H2376   1.082       .  S
C2377      C2378   1.407       .  A
C2377      C2382   1.405       .  A
C2378      C2379   1.408       .  A
C2378      H2391   1.083       .  S
C2379      C2380   1.407   1_655  A
C2379      H2392   1.083   1_655  S
C2380      C2381   1.406       .  A
C2380      C2383   1.495       .  S
C2381      C2382   1.396   1_455  A
C2381      H2393   1.082       .  S
C2382      H2394   1.083       .  S
C2383      C2384   1.351       .  D
C2383      H2395   1.084       .  S
C2384      C2385   1.496       .  S
C2384      H2396   1.087       .  S
C2385      C2386   1.405       .  A
C2385      C2390   1.411       .  A
C2386      C2387   1.397       .  A
C2386      H2397   1.083       .  S
C2387      C2388   1.402       .  A
C2387      H2398   1.083       .  S
C2388      C2389   1.406       .  A
C2389      C2390   1.407       .  A
C2389      H2399   1.083   1_556  S
C2390      H2400   1.081       .  S
C2401      C2402   1.403       .  A
C2401      C2406   1.407   1_554  A
C2402      C2403   1.394   1_565  A
C2402      H2415   1.083       .  S
C2403      C2404   1.402       .  A
C2403      H2416   1.084       .  S
C2404      C2405   1.408   1_545  A
C2404      C2407   1.484       .  S
C2405      C2406   1.406   1_554  A
C2405      H2417   1.083   1_564  S
C2406      H2418   1.083       .  S
C2407      C2408   1.349   1_554  D
C2407      H2419   1.084       .  S
C2408      C2409   1.495       .  S
C2408      H2420   1.086       .  S
C2409      C2410   1.408       .  A
C2409      C2414   1.409   1_556  A
C2410      C2411   1.406       .  A
C2410      H2421   1.083       .  S
C2411      C2412   1.403       .  A
C2411      H2422   1.083       .  S
C2412      C2413   1.402   1_556  A
C2413      C2414   1.394       .  A
C2413      H2423   1.084       .  S
C2414      H2424   1.080       .  S
C2425      C2426   1.405       .  A
C2425      C2430   1.408       .  A
C2426      C2427   1.397       .  A
C2426      H2439   1.083       .  S
C2427      C2428   1.403       .  A
C2427      H2440   1.083       .  S
C2428      C2429   1.406       .  A
C2428      C2431   1.483       .  S
C2429      C2430   1.399       .  A
C2429      H2441   1.082       .  S
C2430      H2442   1.083       .  S
C2431      C2432   1.348       .  D
C2431      H2443   1.083       .  S
C2432      C2433   1.490       .  S
C2432      H2444   1.086       .  S
C2433      C2434   1.404       .  A
C2433      C2438   1.409       .  A
C2434      C2435   1.399       .  A
C2434      H2445   1.083       .  S
C2435      C2436   1.406       .  A
C2435      H2446   1.083       .  S
C2436      C2437   1.405       .  A
C2437      C2438   1.397       .  A
C2437      H2447   1.083       .  S
C2438      H2448   1.080       .  S
C2449      C2450   1.405       .  A
C2449      C2454   1.406       .  A
C2450      C2451   1.404   1_545  A
C2450      H2463   1.083       .  S
C2451      C2452   1.406       .  A
C2451      H2464   1.083       .  S
C2452      C2453   1.406   1_565  A
C2452      C2455   1.490       .  S
C2453      C2454   1.399       .  A
C2453      H2465   1.082       .  S
C2454      H2466   1.083       .  S
C2455      C2456   1.348       .  D
C2455      H2467   1.086       .  S
C2456      C2457   1.489       .  S
C2456      H2468   1.086       .  S
C2457      C2458   1.406       .  A
C2457      C2462   1.406       .  A
C2458      C2459   1.403       .  A
C2458      H2469   1.083       .  S
C2459      C2460   1.402       .  A
C2459      H2470   1.083       .  S
C2460      C2461   1.406       .  A
C2461      C2462   1.399       .  A
C2461      H2471   1.084       .  S
C2462      H2472   1.083       .  S
C2473      C2474   1.406       .  A
C2473      C2478   1.408       .  A
C2474      C2475   1.399       .  A
C2474      H2487   1.083       .  S
C2475      C2476   1.403       .  A
C2475      H2488   1.083       .  S
C2476      C2477   1.405       .  A
C2476      C2479   1.484       .  S
C2477      C2478   1.397       .  A
C2477      H2489   1.082       .  S
C2478      H2490   1.083       .  S
C2479      C2480   1.350       .  D
C2479      H2491   1.084       .  S
C2480      C2481   1.488   1_655  S
C2480      H2492   1.086       .  S
C2481      C2482   1.405       .  A
C2481      C2486   1.407       .  A
C2482      C2483   1.400       .  A
C2482      H2493   1.083       .  S
C2483      C2484   1.405       .  A
C2483      H2494   1.083       .  S
C2484      C2485   1.406       .  A
C2485      C2486   1.396       .  A
C2485      H2495   1.083       .  S
C2486      H2496   1.080   1_455  S
C2497      C2498   1.403       .  A
C2497      C2502   1.403       .  A
C2498      C2499   1.406       .  A
C2498      H2511   1.083       .  S
C2499      C2500   1.408       .  A
C2499      H2512   1.083       .  S
C2500      C2501   1.408       .  A
C2500      C2503   1.493       .  S
C2501      C2502   1.395       .  A
C2501      H2513   1.081       .  S
C2502      H2514   1.084       .  S
C2503      C2504   1.350       .  D
C2503      H2515   1.085       .  S
C2504      C2505   1.491       .  S
C2504      H2516   1.085       .  S
C2505      C2506   1.404       .  A
C2505      C2510   1.410       .  A
C2506      C2507   1.396       .  A
C2506      H2517   1.084       .  S
C2507      C2508   1.402       .  A
C2507      H2518   1.084       .  S
C2508      C2509   1.404       .  A
C2509      C2510   1.406       .  A
C2509      H2519   1.083       .  S
C2510      H2520   1.081       .  S
C2521      C2522   1.406       .  A
C2521      C2526   1.409       .  A
C2522      C2523   1.406       .  A
C2522      H2535   1.083       .  S
C2523      C2524   1.408       .  A
C2523      H2536   1.083       .  S
C2524      C2525   1.404       .  A
C2524      C2527   1.490       .  S
C2525      C2526   1.393       .  A
C2525      H2537   1.082       .  S
C2526      H2538   1.083       .  S
C2527      C2528   1.352       .  D
C2527      H2539   1.084       .  S
C2528      C2529   1.493       .  S
C2528      H2540   1.086       .  S
C2529      C2530   1.410       .  A
C2529      C2534   1.407       .  A
C2530      C2531   1.403       .  A
C2530      H2541   1.083       .  S
C2531      C2532   1.399       .  A
C2531      H2542   1.083       .  S
C2532      C2533   1.405       .  A
C2533      C2534   1.396       .  A
C2533      H2543   1.084       .  S
C2534      H2544   1.080       .  S
C2545      C2546   1.405       .  A
C2545      C2550   1.406       .  A
C2546      C2547   1.406       .  A
C2546      H2559   1.083       .  S
C2547      C2548   1.407       .  A
C2547      H2560   1.083       .  S
C2548      C2549   1.405       .  A
C2548      C2551   1.489       .  S
C2549      C2550   1.397       .  A
C2549      H2561   1.083   1_556  S
C2550      H2562   1.083   1_556  S
C2551      C2552   1.350       .  D
C2551      H2563   1.086       .  S
C2552      C2553   1.490   1_545  S
C2552      H2564   1.087       .  S
C2553      C2554   1.407       .  A
C2553      C2558   1.406       .  A
C2554      C2555   1.405       .  A
C2554      H2565   1.083       .  S
C2555      C2556   1.405       .  A
C2555      H2566   1.083       .  S
C2556      C2557   1.404       .  A
C2557      C2558   1.398       .  A
C2557      H2567   1.083       .  S
C2558      H2568   1.082       .  S
C2569      C2570   1.404       .  A
C2569      C2574   1.405       .  A
C2570      C2571   1.398       .  A
C2570      H2583   1.083       .  S
C2571      C2572   1.403       .  A
C2571      H2584   1.083       .  S
C2572      C2573   1.409       .  A
C2572      C2575   1.488       .  S
C2573      C2574   1.402       .  A
C2573      H2585   1.082       .  S
C2574      H2586   1.083       .  S
C2575      C2576   1.349       .  D
C2575      H2587   1.084       .  S
C2576      C2577   1.492       .  S
C2576      H2588   1.086       .  S
C2577      C2578   1.404       .  A
C2577      C2582   1.410       .  A
C2578      C2579   1.398       .  A
C2578      H2589   1.083       .  S
C2579      C2580   1.407       .  A
C2579      H2590   1.083       .  S
C2580      C2581   1.406       .  A
C2581      C2582   1.402       .  A
C2581      H2591   1.083       .  S
C2582      H2592   1.081       .  S
C2593      C2594   1.404   1_556  A
C2593      C2598   1.404       .  A
C2594      C2595   1.406       .  A
C2594      H2607   1.083       .  S
C2595      C2596   1.407   1_554  A
C2595      H2608   1.083       .  S
C2596      C2597   1.406       .  A
C2596      C2599   1.490   1_556  S
C2597      C2598   1.397       .  A
C2597      H2609   1.083       .  S
C2598      H2610   1.084       .  S
C2599      C2600   1.349   1_554  D
C2599      H2611   1.086       .  S
C2600      C2601   1.490       .  S
C2600      H2612   1.087       .  S
C2601      C2602   1.407       .  A
C2601      C2606   1.407   1_556  A
C2602      C2603   1.403       .  A
C2602      H2613   1.083       .  S
C2603      C2604   1.403       .  A
C2603      H2614   1.083       .  S
C2604      C2605   1.405   1_556  A
C2605      C2606   1.400       .  A
C2605      H2615   1.083       .  S
C2606      H2616   1.082       .  S
C2617      C2618   1.407       .  A
C2617      C2622   1.406       .  A
C2618      C2619   1.397       .  A
C2618      H2631   1.083       .  S
C2619      C2620   1.403       .  A
C2619      H2632   1.083       .  S
C2620      C2621   1.407       .  A
C2620      C2623   1.484       .  S
C2621      C2622   1.397       .  A
C2621      H2633   1.081       .  S
C2622      H2634   1.083       .  S
C2623      C2624   1.346       .  D
C2623      H2635   1.086       .  S
C2624      C2625   1.483       .  S
C2624      H2636   1.085       .  S
C2625      C2626   1.403       .  A
C2625      C2630   1.406       .  A
C2626      C2627   1.398       .  A
C2626      H2637   1.083       .  S
C2627      C2628   1.406       .  A
C2627      H2638   1.083       .  S
C2628      C2629   1.406       .  A
C2629      C2630   1.397       .  A
C2629      H2639   1.083       .  S
C2630      H2640   1.082       .  S
C2641      C2642   1.401       .  A
C2641      C2646   1.404       .  A
C2642      C2643   1.402       .  A
C2642      H2655   1.083       .  S
C2643      C2644   1.407       .  A
C2643      H2656   1.083       .  S
C2644      C2645   1.408       .  A
C2644      C2647   1.491       .  S
C2645      C2646   1.400       .  A
C2645      H2657   1.082       .  S
C2646      H2658   1.084       .  S
C2647      C2648   1.350       .  D
C2647      H2659   1.086       .  S
C2648      C2649   1.492       .  S
C2648      H2660   1.086       .  S
C2649      C2650   1.406       .  A
C2649      C2654   1.407       .  A
C2650      C2651   1.404       .  A
C2650      H2661   1.083       .  S
C2651      C2652   1.406       .  A
C2651      H2662   1.083       .  S
C2652      C2653   1.406       .  A
C2653      C2654   1.399       .  A
C2653      H2663   1.083       .  S
C2654      H2664   1.082       .  S
C2665      C2666   1.407       .  A
C2665      C2670   1.407       .  A
C2666      C2667   1.396       .  A
C2666      H2679   1.083       .  S
C2667      C2668   1.403       .  A
C2667      H2680   1.083       .  S
C2668      C2669   1.410       .  A
C2668      C2671   1.491       .  S
C2669      C2670   1.404       .  A
C2669      H2681   1.081       .  S
C2670      H2682   1.083       .  S
C2671      C2672   1.347       .  D
C2671      H2683   1.086       .  S
C2672      C2673   1.489       .  S
C2672      H2684   1.085       .  S
C2673      C2674   1.402       .  A
C2673      C2678   1.409       .  A
C2674      C2675   1.399       .  A
C2674      H2685   1.083       .  S
C2675      C2676   1.407       .  A
C2675      H2686   1.083       .  S
C2676      C2677   1.406       .  A
C2677      C2678   1.402       .  A
C2677      H2687   1.083       .  S
C2678      H2688   1.082       .  S
C2689      C2690   1.406       .  A
C2689      C2694   1.406       .  A
C2690      C2691   1.396       .  A
C2690      H2703   1.083       .  S
C2691      C2692   1.403   1_455  A
C2691      H2704   1.084       .  S
C2692      C2693   1.410       .  A
C2692      C2695   1.490       .  S
C2693      C2694   1.402   1_655  A
C2693      H2705   1.080       .  S
C2694      H2706   1.083       .  S
C2695      C2696   1.348       .  D
C2695      H2707   1.086       .  S
C2696      C2697   1.487       .  S
C2696      H2708   1.084       .  S
C2697      C2698   1.402       .  A
C2697      C2702   1.409       .  A
C2698      C2699   1.398       .  A
C2698      H2709   1.083       .  S
C2699      C2700   1.407       .  A
C2699      H2710   1.083       .  S
C2700      C2701   1.404       .  A
C2701      C2702   1.400       .  A
C2701      H2711   1.083   1_545  S
C2702      H2712   1.082       .  S
C2713      C2714   1.406       .  A
C2713      C2718   1.408       .  A
C2714      C2715   1.393       .  A
C2714      H2727   1.083       .  S
C2715      C2716   1.401       .  A
C2715      H2728   1.084       .  S
C2716      C2717   1.411       .  A
C2716      C2719   1.493       .  S
C2717      C2718   1.411       .  A
C2717      H2729   1.082       .  S
C2718      H2730   1.083       .  S
C2719      C2720   1.350       .  D
C2719      H2731   1.085       .  S
C2720      C2721   1.498       .  S
C2720      H2732   1.086       .  S
C2721      C2722   1.406       .  A
C2721      C2726   1.411       .  A
C2722      C2723   1.403       .  A
C2722      H2733   1.083       .  S
C2723      C2724   1.403       .  A
C2723      H2734   1.083       .  S
C2724      C2725   1.402       .  A
C2725      C2726   1.402       .  A
C2725      H2735   1.083       .  S
C2726      H2736   1.082       .  S
C2737      C2738   1.400       .  A
C2737      C2742   1.404       .  A
C2738      C2739   1.398       .  A
C2738      H2751   1.083       .  S
C2739      C2740   1.407       .  A
C2739      H2752   1.083       .  S
C2740      C2741   1.409       .  A
C2740      C2743   1.491       .  S
C2741      C2742   1.401       .  A
C2741      H2753   1.080       .  S
C2742      H2754   1.084       .  S
C2743      C2744   1.350       .  D
C2743      H2755   1.088       .  S
C2744      C2745   1.486       .  S
C2744      H2756   1.083       .  S
C2745      C2746   1.404       .  A
C2745      C2750   1.404       .  A
C2746      C2747   1.405       .  A
C2746      H2757   1.083       .  S
C2747      C2748   1.407       .  A
C2747      H2758   1.083       .  S
C2748      C2749   1.407       .  A
C2749      C2750   1.393       .  A
C2749      H2759   1.083       .  S
C2750      H2760   1.083       .  S
C2761      C2762   1.403       .  A
C2761      C2766   1.402       .  A
C2762      C2763   1.405       .  A
C2762      H2775   1.083       .  S
C2763      C2764   1.407       .  A
C2763      H2776   1.083       .  S
C2764      C2765   1.410       .  A
C2764      C2767   1.497       .  S
C2765      C2766   1.397       .  A
C2765      H2777   1.082       .  S
C2766      H2778   1.084       .  S
C2767      C2768   1.350       .  D
C2767      H2779   1.085       .  S
C2768      C2769   1.491       .  S
C2768      H2780   1.085       .  S
C2769      C2770   1.401       .  A
C2769      C2774   1.412       .  A
C2770      C2771   1.391       .  A
C2770      H2781   1.084       .  S
C2771      C2772   1.406       .  A
C2771      H2782   1.083       .  S
C2772      C2773   1.408       .  A
C2773      C2774   1.412       .  A
C2773      H2783   1.083       .  S
C2774      H2784   1.082       .  S
C2785      C2786   1.407       .  A
C2785      C2790   1.407       .  A
C2786      C2787   1.402       .  A
C2786      H2799   1.083       .  S
C2787      C2788   1.405       .  A
C2787      H2800   1.083       .  S
C2788      C2789   1.406       .  A
C2788      C2791   1.487       .  S
C2789      C2790   1.394       .  A
C2789      H2801   1.081       .  S
C2790      H2802   1.083       .  S
C2791      C2792   1.349       .  D
C2791      H2803   1.086       .  S
C2792      C2793   1.485       .  S
C2792      H2804   1.085       .  S
C2793      C2794   1.403       .  A
C2793      C2798   1.406       .  A
C2794      C2795   1.398       .  A
C2794      H2805   1.083       .  S
C2795      C2796   1.406       .  A
C2795      H2806   1.083       .  S
C2796      C2797   1.407       .  A
C2797      C2798   1.398       .  A
C2797      H2807   1.083       .  S
C2798      H2808   1.082       .  S
C2809      C2810   1.406       .  A
C2809      C2814   1.405       .  A
C2810      C2811   1.396       .  A
C2810      H2823   1.083       .  S
C2811      C2812   1.404       .  A
C2811      H2824   1.083       .  S
C2812      C2813   1.412       .  A
C2812      C2815   1.494       .  S
C2813      C2814   1.402       .  A
C2813      H2825   1.079       .  S
C2814      H2826   1.083       .  S
C2815      C2816   1.348       .  D
C2815      H2827   1.086       .  S
C2816      C2817   1.487       .  S
C2816      H2828   1.083       .  S
C2817      C2818   1.402       .  A
C2817      C2822   1.409       .  A
C2818      C2819   1.398       .  A
C2818      H2829   1.083       .  S
C2819      C2820   1.407       .  A
C2819      H2830   1.083       .  S
C2820      C2821   1.405       .  A
C2821      C2822   1.402       .  A
C2821      H2831   1.083       .  S
C2822      H2832   1.082       .  S
C2833      C2834   1.406       .  A
C2833      C2838   1.410       .  A
C2834      C2835   1.389       .  A
C2834      H2847   1.083       .  S
C2835      C2836   1.400       .  A
C2835      H2848   1.084       .  S
C2836      C2837   1.411       .  A
C2836      C2839   1.489       .  S
C2837      C2838   1.412       .  A
C2837      H2849   1.082       .  S
C2838      H2850   1.083       .  S
C2839      C2840   1.350       .  D
C2839      H2851   1.086       .  S
C2840      C2841   1.496   1_455  S
C2840      H2852   1.085       .  S
C2841      C2842   1.407       .  A
C2841      C2846   1.408   1_556  A
C2842      C2843   1.406       .  A
C2842      H2853   1.083       .  S
C2843      C2844   1.405       .  A
C2843      H2854   1.083       .  S
C2844      C2845   1.402   1_556  A
C2845      C2846   1.395       .  A
C2845      H2855   1.084       .  S
C2846      H2856   1.082       .  S
C2857      C2858   1.406       .  A
C2857      C2862   1.406       .  A
C2858      C2859   1.397       .  A
C2858      H2871   1.083       .  S
C2859      C2860   1.402       .  A
C2859      H2872   1.083       .  S
C2860      C2861   1.406       .  A
C2860      C2863   1.482       .  S
C2861      C2862   1.397       .  A
C2861      H2873   1.082       .  S
C2862      H2874   1.083       .  S
C2863      C2864   1.345       .  D
C2863      H2875   1.086       .  S
C2864      C2865   1.483       .  S
C2864      H2876   1.086       .  S
C2865      C2866   1.402       .  A
C2865      C2870   1.406       .  A
C2866      C2867   1.398       .  A
C2866      H2877   1.083       .  S
C2867      C2868   1.406       .  A
C2867      H2878   1.083       .  S
C2868      C2869   1.406       .  A
C2869      C2870   1.397       .  A
C2869      H2879   1.083       .  S
C2870      H2880   1.082       .  S
C2881      C2882   1.406       .  A
C2881      C2886   1.404       .  A
C2882      C2883   1.403       .  A
C2882      H2895   1.084       .  S
C2883      C2884   1.405       .  A
C2883      H2896   1.083       .  S
C2884      C2885   1.403       .  A
C2884      C2887   1.483       .  S
C2885      C2886   1.399       .  A
C2885      H2897   1.083       .  S
C2886      H2898   1.083       .  S
C2887      C2888   1.348       .  D
C2887      H2899   1.087       .  S
C2888      C2889   1.486       .  S
C2888      H2900   1.087       .  S
C2889      C2890   1.404       .  A
C2889      C2894   1.406       .  A
C2890      C2891   1.400       .  A
C2890      H2901   1.083       .  S
C2891      C2892   1.405       .  A
C2891      H2902   1.083       .  S
C2892      C2893   1.406       .  A
C2893      C2894   1.401       .  A
C2893      H2903   1.083       .  S
C2894      H2904   1.083       .  S
C2905      C2906   1.402       .  A
C2905      C2910   1.403       .  A
C2906      C2907   1.394       .  A
C2906      H2919   1.084       .  S
C2907      C2908   1.404       .  A
C2907      H2920   1.084       .  S
C2908      C2909   1.411       .  A
C2908      C2911   1.489       .  S
C2909      C2910   1.405       .  A
C2909      H2921   1.080       .  S
C2910      H2922   1.083       .  S
C2911      C2912   1.347       .  D
C2911      H2923   1.088       .  S
C2912      C2913   1.486       .  S
C2912      H2924   1.084       .  S
C2913      C2914   1.404       .  A
C2913      C2918   1.405       .  A
C2914      C2915   1.404       .  A
C2914      H2925   1.083       .  S
C2915      C2916   1.408       .  A
C2915      H2926   1.083       .  S
C2916      C2917   1.405       .  A
C2917      C2918   1.393       .  A
C2917      H2927   1.083       .  S
C2918      H2928   1.083       .  S
C2929      C2930   1.405       .  A
C2929      C2934   1.405       .  A
C2930      C2931   1.404       .  A
C2930      H2943   1.083       .  S
C2931      C2932   1.406       .  A
C2931      H2944   1.083       .  S
C2932      C2933   1.407       .  A
C2932      C2935   1.492       .  S
C2933      C2934   1.397       .  A
C2933      H2945   1.082       .  S
C2934      H2946   1.083       .  S
C2935      C2936   1.349       .  D
C2935      H2947   1.083       .  S
C2936      C2937   1.495   1_545  S
C2936      H2948   1.086       .  S
C2937      C2938   1.405       .  A
C2937      C2942   1.413       .  A
C2938      C2939   1.395       .  A
C2938      H2949   1.083       .  S
C2939      C2940   1.400       .  A
C2939      H2950   1.084       .  S
C2940      C2941   1.404       .  A
C2941      C2942   1.406       .  A
C2941      H2951   1.083       .  S
C2942      H2952   1.080       .  S
C2953      C2954   1.401       .  A
C2953      C2958   1.404       .  A
C2954      C2955   1.395       .  A
C2954      H2967   1.084       .  S
C2955      C2956   1.405   1_565  A
C2955      H2968   1.084       .  S
C2956      C2957   1.410       .  A
C2956      C2959   1.490       .  S
C2957      C2958   1.404   1_545  A
C2957      H2969   1.080       .  S
C2958      H2970   1.083   1_565  S
C2959      C2960   1.350       .  D
C2959      H2971   1.088       .  S
C2960      C2961   1.486       .  S
C2960      H2972   1.083       .  S
C2961      C2962   1.405       .  A
C2961      C2966   1.403       .  A
C2962      C2963   1.406       .  A
C2962      H2973   1.083       .  S
C2963      C2964   1.408       .  A
C2963      H2974   1.083       .  S
C2964      C2965   1.408       .  A
C2965      C2966   1.392       .  A
C2965      H2975   1.083       .  S
C2966      H2976   1.083       .  S
C2977      C2978   1.404       .  A
C2977      C2982   1.405       .  A
C2978      C2979   1.402       .  A
C2978      H2991   1.083       .  S
C2979      C2980   1.405       .  A
C2979      H2992   1.083       .  S
C2980      C2981   1.406       .  A
C2980      C2983   1.486       .  S
C2981      C2982   1.397       .  A
C2981      H2993   1.082       .  S
C2982      H2994   1.083       .  S
C2983      C2984   1.345       .  D
C2983      H2995   1.087       .  S
C2984      C2985   1.482       .  S
C2984      H2996   1.086       .  S
C2985      C2986   1.403       .  A
C2985      C2990   1.406       .  A
C2986      C2987   1.401       .  A
C2986      H2997   1.083       .  S
C2987      C2988   1.404       .  A
C2987      H2998   1.083       .  S
C2988      C2989   1.405       .  A
C2989      C2990   1.398       .  A
C2989      H2999   1.083       .  S
C2990      H3000   1.083       .  S
C3001      C3002   1.408       .  A
C3001      C3006   1.405       .  A
C3002      C3003   1.409       .  A
C3002      H3015   1.083       .  S
C3003      C3004   1.407       .  A
C3003      H3016   1.083       .  S
C3004      C3005   1.405       .  A
C3004      C3007   1.493       .  S
C3005      C3006   1.393       .  A
C3005      H3017   1.083       .  S
C3006      H3018   1.083       .  S
C3007      C3008   1.351       .  D
C3007      H3019   1.084       .  S
C3008      C3009   1.494       .  S
C3008      H3020   1.087       .  S
C3009      C3010   1.405       .  A
C3009      C3014   1.411       .  A
C3010      C3011   1.396       .  A
C3010      H3021   1.084       .  S
C3011      C3012   1.402       .  A
C3011      H3022   1.084   1_545  S
C3012      C3013   1.405       .  A
C3013      C3014   1.407       .  A
C3013      H3023   1.083       .  S
C3014      H3024   1.081       .  S
C3025      C3026   1.406       .  A
C3025      C3030   1.407       .  A
C3026      C3027   1.397       .  A
C3026      H3039   1.083       .  S
C3027      C3028   1.404       .  A
C3027      H3040   1.083       .  S
C3028      C3029   1.409       .  A
C3028      C3031   1.491       .  S
C3029      C3030   1.401       .  A
C3029      H3041   1.081       .  S
C3030      H3042   1.083       .  S
C3031      C3032   1.349       .  D
C3031      H3043   1.084       .  S
C3032      C3033   1.492       .  S
C3032      H3044   1.084       .  S
C3033      C3034   1.405       .  A
C3033      C3038   1.409       .  A
C3034      C3035   1.401       .  A
C3034      H3045   1.083       .  S
C3035      C3036   1.407       .  A
C3035      H3046   1.083       .  S
C3036      C3037   1.407       .  A
C3037      C3038   1.399       .  A
C3037      H3047   1.083       .  S
C3038      H3048   1.081       .  S
C3049      C3050   1.404       .  A
C3049      C3054   1.406       .  A
C3050      C3051   1.398       .  A
C3050      H3063   1.083       .  S
C3051      C3052   1.403       .  A
C3051      H3064   1.083       .  S
C3052      C3053   1.406       .  A
C3052      C3055   1.484       .  S
C3053      C3054   1.403       .  A
C3053      H3065   1.083       .  S
C3054      H3066   1.083       .  S
C3055      C3056   1.348       .  D
C3055      H3067   1.087       .  S
C3056      C3057   1.486       .  S
C3056      H3068   1.087       .  S
C3057      C3058   1.405       .  A
C3057      C3062   1.406       .  A
C3058      C3059   1.401       .  A
C3058      H3069   1.083       .  S
C3059      C3060   1.402       .  A
C3059      H3070   1.083       .  S
C3060      C3061   1.404       .  A
C3061      C3062   1.401       .  A
C3061      H3071   1.084       .  S
C3062      H3072   1.083       .  S
C3073      C3074   1.406       .  A
C3073      C3078   1.405       .  A
C3074      C3075   1.406       .  A
C3074      H3087   1.083       .  S
C3075      C3076   1.407       .  A
C3075      H3088   1.083       .  S
C3076      C3077   1.407       .  A
C3076      C3079   1.494       .  S
C3077      C3078   1.396       .  A
C3077      H3089   1.082       .  S
C3078      H3090   1.083       .  S
C3079      C3080   1.351       .  D
C3079      H3091   1.083       .  S
C3080      C3081   1.495   1_455  S
C3080      H3092   1.086       .  S
C3081      C3082   1.406       .  A
C3081      C3086   1.412       .  A
C3082      C3083   1.397       .  A
C3082      H3093   1.083       .  S
C3083      C3084   1.401       .  A
C3083      H3094   1.084       .  S
C3084      C3085   1.404       .  A
C3085      C3086   1.405       .  A
C3085      H3095   1.083       .  S
C3086      H3096   1.080       .  S
C3097      C3098   1.406       .  A
C3097      C3102   1.409       .  A
C3098      C3099   1.399       .  A
C3098      H3111   1.083       .  S
C3099      C3100   1.403       .  A
C3099      H3112   1.083       .  S
C3100      C3101   1.406       .  A
C3100      C3103   1.487       .  S
C3101      C3102   1.400       .  A
C3101      H3113   1.082       .  S
C3102      H3114   1.083       .  S
C3103      C3104   1.349       .  D
C3103      H3115   1.085       .  S
C3104      C3105   1.490       .  S
C3104      H3116   1.086       .  S
C3105      C3106   1.406       .  A
C3105      C3110   1.406       .  A
C3106      C3107   1.402       .  A
C3106      H3117   1.083       .  S
C3107      C3108   1.406       .  A
C3107      H3118   1.083       .  S
C3108      C3109   1.407       .  A
C3109      C3110   1.397       .  A
C3109      H3119   1.083       .  S
C3110      H3120   1.081       .  S
C3121      C3122   1.405       .  A
C3121      C3126   1.404       .  A
C3122      C3123   1.401       .  A
C3122      H3135   1.083       .  S
C3123      C3124   1.404       .  A
C3123      H3136   1.083       .  S
C3124      C3125   1.409       .  A
C3124      C3127   1.492       .  S
C3125      C3126   1.404       .  A
C3125      H3137   1.083       .  S
C3126      H3138   1.083       .  S
C3127      C3128   1.348       .  D
C3127      H3139   1.086       .  S
C3128      C3129   1.490       .  S
C3128      H3140   1.087       .  S
C3129      C3130   1.403       .  A
C3129      C3134   1.409       .  A
C3130      C3131   1.397       .  A
C3130      H3141   1.084       .  S
C3131      C3132   1.404       .  A
C3131      H3142   1.083       .  S
C3132      C3133   1.407       .  A
C3133      C3134   1.408       .  A
C3133      H3143   1.083       .  S
C3134      H3144   1.082       .  S
C3145      C3146   1.406       .  A
C3145      C3150   1.408       .  A
C3146      C3147   1.407       .  A
C3146      H3159   1.083       .  S
C3147      C3148   1.409       .  A
C3147      H3160   1.083       .  S
C3148      C3149   1.403       .  A
C3148      C3151   1.490       .  S
C3149      C3150   1.391       .  A
C3149      H3161   1.081       .  S
C3150      H3162   1.083       .  S
C3151      C3152   1.354       .  D
C3151      H3163   1.084       .  S
C3152      C3153   1.492       .  S
C3152      H3164   1.086       .  S
C3153      C3154   1.410       .  A
C3153      C3158   1.406       .  A
C3154      C3155   1.405       .  A
C3154      H3165   1.083       .  S
C3155      C3156   1.403       .  A
C3155      H3166   1.083       .  S
C3156      C3157   1.405       .  A
C3157      C3158   1.395       .  A
C3157      H3167   1.084       .  S
C3158      H3168   1.080       .  S
C3169      C3170   1.403       .  A
C3169      C3174   1.405       .  A
C3170      C3171   1.406       .  A
C3170      H3183   1.083       .  S
C3171      C3172   1.408       .  A
C3171      H3184   1.083       .  S
C3172      C3173   1.407       .  A
C3172      C3175   1.495       .  S
C3173      C3174   1.401       .  A
C3173      H3185   1.082       .  S
C3174      H3186   1.084       .  S
C3175      C3176   1.352       .  D
C3175      H3187   1.086       .  S
C3176      C3177   1.496       .  S
C3176      H3188   1.086       .  S
C3177      C3178   1.409       .  A
C3177      C3182   1.406   1_655  A
C3178      C3179   1.408   1_655  A
C3178      H3189   1.083       .  S
C3179      C3180   1.405       .  A
C3179      H3190   1.083   1_455  S
C3180      C3181   1.407       .  A
C3181      C3182   1.400       .  A
C3181      H3191   1.083       .  S
C3182      H3192   1.082       .  S
C3193      C3194   1.405       .  A
C3193      C3198   1.406       .  A
C3194      C3195   1.405       .  A
C3194      H3207   1.083       .  S
C3195      C3196   1.407       .  A
C3195      H3208   1.083       .  S
C3196      C3197   1.408       .  A
C3196      C3199   1.494       .  S
C3197      C3198   1.398       .  A
C3197      H3209   1.082       .  S
C3198      H3210   1.083       .  S
C3199      C3200   1.351       .  D
C3199      H3211   1.083       .  S
C3200      C3201   1.497       .  S
C3200      H3212   1.086       .  S
C3201      C3202   1.405       .  A
C3201      C3206   1.413       .  A
C3202      C3203   1.397       .  A
C3202      H3213   1.083       .  S
C3203      C3204   1.402       .  A
C3203      H3214   1.084       .  S
C3204      C3205   1.404       .  A
C3205      C3206   1.406       .  A
C3205      H3215   1.083       .  S
C3206      H3216   1.080       .  S
C3217      C3218   1.405       .  A
C3217      C3222   1.406       .  A
C3218      C3219   1.397       .  A
C3218      H3231   1.083       .  S
C3219      C3220   1.403       .  A
C3219      H3232   1.083       .  S
C3220      C3221   1.408       .  A
C3220      C3223   1.486       .  S
C3221      C3222   1.397       .  A
C3221      H3233   1.081       .  S
C3222      H3234   1.083       .  S
C3223      C3224   1.347       .  D
C3223      H3235   1.085       .  S
C3224      C3225   1.485       .  S
C3224      H3236   1.084       .  S
C3225      C3226   1.402       .  A
C3225      C3230   1.409       .  A
C3226      C3227   1.395       .  A
C3226      H3237   1.084       .  S
C3227      C3228   1.406       .  A
C3227      H3238   1.083       .  S
C3228      C3229   1.405       .  A
C3229      C3230   1.399       .  A
C3229      H3239   1.083       .  S
C3230      H3240   1.081       .  S
C3241      C3242   1.407       .  A
C3241      C3246   1.407       .  A
C3242      C3243   1.400   1_545  A
C3242      H3255   1.083       .  S
C3243      C3244   1.403       .  A
C3243      H3256   1.083       .  S
C3244      C3245   1.406   1_565  A
C3244      C3247   1.485       .  S
C3245      C3246   1.396       .  A
C3245      H3257   1.082       .  S
C3246      H3258   1.083       .  S
C3247      C3248   1.349       .  D
C3247      H3259   1.083       .  S
C3248      C3249   1.490       .  S
C3248      H3260   1.086       .  S
C3249      C3250   1.405       .  A
C3249      C3254   1.409       .  A
C3250      C3251   1.397       .  A
C3250      H3261   1.083       .  S
C3251      C3252   1.404       .  A
C3251      H3262   1.083   1_455  S
C3252      C3253   1.406       .  A
C3253      C3254   1.399       .  A
C3253      H3263   1.083       .  S
C3254      H3264   1.079       .  S
C3265      C3266   1.406       .  A
C3265      C3270   1.408   1_655  A
C3266      C3267   1.405       .  A
C3266      H3279   1.083       .  S
C3267      C3268   1.407   1_655  A
C3267      H3280   1.083       .  S
C3268      C3269   1.403       .  A
C3268      C3271   1.486       .  S
C3269      C3270   1.391       .  A
C3269      H3281   1.082       .  S
C3270      H3282   1.083       .  S
C3271      C3272   1.351       .  D
C3271      H3283   1.084   1_455  S
C3272      C3273   1.488       .  S
C3272      H3284   1.086       .  S
C3273      C3274   1.409       .  A
C3273      C3278   1.405       .  A
C3274      C3275   1.404       .  A
C3274      H3285   1.083       .  S
C3275      C3276   1.401       .  A
C3275      H3286   1.083       .  S
C3276      C3277   1.404       .  A
C3277      C3278   1.391       .  A
C3277      H3287   1.084       .  S
C3278      H3288   1.080       .  S
C3289      C3290   1.404       .  A
C3289      C3294   1.407       .  A
C3290      C3291   1.396       .  A
C3290      H3303   1.083       .  S
C3291      C3292   1.402       .  A
C3291      H3304   1.084       .  S
C3292      C3293   1.409       .  A
C3292      C3295   1.488       .  S
C3293      C3294   1.407       .  A
C3293      H3305   1.083       .  S
C3294      H3306   1.083       .  S
C3295      C3296   1.348       .  D
C3295      H3307   1.087       .  S
C3296      C3297   1.489       .  S
C3296      H3308   1.086       .  S
C3297      C3298   1.403       .  A
C3297      C3302   1.408       .  A
C3298      C3299   1.399       .  A
C3298      H3309   1.083       .  S
C3299      C3300   1.404       .  A
C3299      H3310   1.083       .  S
C3300      C3301   1.404       .  A
C3301      C3302   1.403       .  A
C3301      H3311   1.083       .  S
C3302      H3312   1.083       .  S
C3313      C3314   1.403       .  A
C3313      C3318   1.408       .  A
C3314      C3315   1.394       .  A
C3314      H3327   1.083       .  S
C3315      C3316   1.402       .  A
C3315      H3328   1.084   1_655  S
C3316      C3317   1.408       .  A
C3316      C3319   1.485       .  S
C3317      C3318   1.408       .  A
C3317      H3329   1.083       .  S
C3318      H3330   1.083       .  S
C3319      C3320   1.349       .  D
C3319      H3331   1.086   1_655  S
C3320      C3321   1.493   1_655  S
C3320      H3332   1.086       .  S
C3321      C3322   1.408   1_455  A
C3321      C3326   1.407       .  A
C3322      C3323   1.409   1_655  A
C3322      H3333   1.083       .  S
C3323      C3324   1.406       .  A
C3323      H3334   1.083       .  S
C3324      C3325   1.403       .  A
C3325      C3326   1.392       .  A
C3325      H3335   1.084       .  S
C3326      H3336   1.082       .  S
C3337      C3338   1.407       .  A
C3337      C3342   1.406       .  A
C3338      C3339   1.398       .  A
C3338      H3351   1.083       .  S
C3339      C3340   1.402       .  A
C3339      H3352   1.083   1_545  S
C3340      C3341   1.409       .  A
C3340      C3343   1.489   1_545  S
C3341      C3342   1.403       .  A
C3341      H3353   1.082       .  S
C3342      H3354   1.083       .  S
C3343      C3344   1.349       .  D
C3343      H3355   1.084       .  S
C3344      C3345   1.493       .  S
C3344      H3356   1.086       .  S
C3345      C3346   1.404       .  A
C3345      C3350   1.410       .  A
C3346      C3347   1.398       .  A
C3346      H3357   1.083       .  S
C3347      C3348   1.408       .  A
C3347      H3358   1.083       .  S
C3348      C3349   1.406       .  A
C3349      C3350   1.402       .  A
C3349      H3359   1.083       .  S
C3350      H3360   1.080       .  S
C3361      C3362   1.405       .  A
C3361      C3366   1.407       .  A
C3362      C3363   1.402       .  A
C3362      H3375   1.083       .  S
C3363      C3364   1.407       .  A
C3363      H3376   1.083       .  S
C3364      C3365   1.407       .  A
C3364      C3367   1.491       .  S
C3365      C3366   1.397       .  A
C3365      H3377   1.081       .  S
C3366      H3378   1.083       .  S
C3367      C3368   1.352       .  D
C3367      H3379   1.085       .  S
C3368      C3369   1.490       .  S
C3368      H3380   1.084       .  S
C3369      C3370   1.405       .  A
C3369      C3374   1.406       .  A
C3370      C3371   1.401       .  A
C3370      H3381   1.083       .  S
C3371      C3372   1.406       .  A
C3371      H3382   1.083       .  S
C3372      C3373   1.408       .  A
C3373      C3374   1.398       .  A
C3373      H3383   1.083   1_455  S
C3374      H3384   1.081       .  S
C3385      C3386   1.404       .  A
C3385      C3390   1.406       .  A
C3386      C3387   1.398       .  A
C3386      H3399   1.083       .  S
C3387      C3388   1.402       .  A
C3387      H3400   1.083       .  S
C3388      C3389   1.403       .  A
C3388      C3391   1.477       .  S
C3389      C3390   1.399       .  A
C3389      H3401   1.083       .  S
C3390      H3402   1.083       .  S
C3391      C3392   1.346       .  D
C3391      H3403   1.087       .  S
C3392      C3393   1.478       .  S
C3392      H3404   1.087       .  S
C3393      C3394   1.404       .  A
C3393      C3398   1.402       .  A
C3394      C3395   1.400       .  A
C3394      H3405   1.083       .  S
C3395      C3396   1.406       .  A
C3395      H3406   1.083       .  S
C3396      C3397   1.404       .  A
C3397      C3398   1.398       .  A
C3397      H3407   1.083       .  S
C3398      H3408   1.083       .  S
C3409      C3410   1.405       .  A
C3409      C3414   1.404       .  A
C3410      C3411   1.406       .  A
C3410      H3423   1.083       .  S
C3411      C3412   1.407       .  A
C3411      H3424   1.083       .  S
C3412      C3413   1.407       .  A
C3412      C3415   1.494       .  S
C3413      C3414   1.396       .  A
C3413      H3425   1.082       .  S
C3414      H3426   1.084       .  S
C3415      C3416   1.350       .  D
C3415      H3427   1.085       .  S
C3416      C3417   1.490       .  S
C3416      H3428   1.086       .  S
C3417      C3418   1.402       .  A
C3417      C3422   1.410       .  A
C3418      C3419   1.392   1_545  A
C3418      H3429   1.084       .  S
C3419      C3420   1.405       .  A
C3419      H3430   1.083       .  S
C3420      C3421   1.408       .  A
C3421      C3422   1.409   1_565  A
C3421      H3431   1.083       .  S
C3422      H3432   1.081       .  S
C3433      C3434   1.405       .  A
C3433      C3438   1.408       .  A
C3434      C3435   1.396       .  A
C3434      H3447   1.083       .  S
C3435      C3436   1.403       .  A
C3435      H3448   1.083       .  S
C3436      C3437   1.406       .  A
C3436      C3439   1.483       .  S
C3437      C3438   1.397       .  A
C3437      H3449   1.082       .  S
C3438      H3450   1.083       .  S
C3439      C3440   1.349       .  D
C3439      H3451   1.084       .  S
C3440      C3441   1.488       .  S
C3440      H3452   1.085       .  S
C3441      C3442   1.406       .  A
C3441      C3446   1.407       .  A
C3442      C3443   1.400       .  A
C3442      H3453   1.083       .  S
C3443      C3444   1.405       .  A
C3443      H3454   1.083       .  S
C3444      C3445   1.405       .  A
C3445      C3446   1.394       .  A
C3445      H3455   1.083       .  S
C3446      H3456   1.080       .  S
C3457      C3458   1.405       .  A
C3457      C3462   1.407       .  A
C3458      C3459   1.401       .  A
C3458      H3471   1.083       .  S
C3459      C3460   1.406       .  A
C3459      H3472   1.083       .  S
C3460      C3461   1.406       .  A
C3460      C3463   1.488       .  S
C3461      C3462   1.395       .  A
C3461      H3473   1.081       .  S
C3462      H3474   1.083       .  S
C3463      C3464   1.350       .  D
C3463      H3475   1.085       .  S
C3464      C3465   1.486       .  S
C3464      H3476   1.084       .  S
C3465      C3466   1.404       .  A
C3465      C3470   1.406       .  A
C3466      C3467   1.399       .  A
C3466      H3477   1.083       .  S
C3467      C3468   1.406       .  A
C3467      H3478   1.083       .  S
C3468      C3469   1.407       .  A
C3469      C3470   1.397       .  A
C3469      H3479   1.083       .  S
C3470      H3480   1.081       .  S
C3481      C3482   1.403       .  A
C3481      C3486   1.401       .  A
C3482      C3483   1.403       .  A
C3482      H3495   1.083       .  S
C3483      C3484   1.407       .  A
C3483      H3496   1.083       .  S
C3484      C3485   1.409       .  A
C3484      C3487   1.492       .  S
C3485      C3486   1.396       .  A
C3485      H3497   1.082       .  S
C3486      H3498   1.084       .  S
C3487      C3488   1.349       .  D
C3487      H3499   1.086       .  S
C3488      C3489   1.486       .  S
C3488      H3500   1.085       .  S
C3489      C3490   1.402       .  A
C3489      C3494   1.409       .  A
C3490      C3491   1.392   1_455  A
C3490      H3501   1.084       .  S
C3491      C3492   1.405       .  A
C3491      H3502   1.083       .  S
C3492      C3493   1.407       .  A
C3493      C3494   1.406   1_655  A
C3493      H3503   1.083       .  S
C3494      H3504   1.082       .  S
C3505      C3506   1.406       .  A
C3505      C3510   1.406       .  A
C3506      C3507   1.399       .  A
C3506      H3519   1.083       .  S
C3507      C3508   1.404       .  A
C3507      H3520   1.083       .  S
C3508      C3509   1.408       .  A
C3508      C3511   1.488       .  S
C3509      C3510   1.397       .  A
C3509      H3521   1.081       .  S
C3510      H3522   1.083       .  S
C3511      C3512   1.348       .  D
C3511      H3523   1.085       .  S
C3512      C3513   1.486       .  S
C3512      H3524   1.085       .  S
C3513      C3514   1.403       .  A
C3513      C3518   1.407       .  A
C3514      C3515   1.397       .  A
C3514      H3525   1.083       .  S
C3515      C3516   1.405       .  A
C3515      H3526   1.083       .  S
C3516      C3517   1.407       .  A
C3517      C3518   1.399       .  A
C3517      H3527   1.083       .  S
C3518      H3528   1.082       .  S
