geometry optimzed in LAMMPS
_audit_creation_date              2020-12-01 
_audit_creation_method            'lammps2cif' 
_symmetry_space_group_name_H-M    'P1' 
_symmetry_Int_Tables_number       1 
_symmetry_cell_setting            triclinic 
loop_ 
_symmetry_equiv_pos_as_xyz 
  x,y,z 
_cell_length_a                    37.7857898 
_cell_length_b                    37.437879351783344 
_cell_length_c                    39.70747597340366 
_cell_angle_alpha                 90.27439297724821 
_cell_angle_beta                  89.85659909437415 
_cell_angle_gamma                 89.72597100541019 
loop_ 
_atom_site_label 
_atom_site_type_symbol 
_atom_site_fract_x 
_atom_site_fract_y 
_atom_site_fract_z 
_atom_site_charge 
O1          O  0.39167916  0.98185942  0.12503432    -0.81400
C2          C  0.51380969  0.89986161  0.13288828     0.97900
O3          O  0.51374155  0.93251701  0.14222120    -0.70600
O4          O  0.48701996  0.95719925  0.08923961    -0.74200
Al5        Al  0.47526574  0.96620277  0.13312805     1.49000
C6          C  0.46745196  0.96624190  0.06566229     0.93200
O7          O  0.41652322  0.89556585  0.08313886    -0.80400
O8          O  0.40454671  0.90936688  0.18201330    -0.73900
Al9        Al  0.40586364  0.93835781  0.10533883     1.90100
O10         O  0.42114961  0.86344991  0.12880754    -0.73000
O11         O  0.47087392  0.92234460  0.19587550    -0.72900
O12         O  0.48686555  0.88145308  0.13837918    -0.78500
O13         O  0.46629361  0.97743881  0.17766021    -0.76700
O14         O  0.44210972  0.93379986  0.13266432    -1.12900
O15         O  0.44380984  0.00637043  0.12170663    -0.72000
C16         C  0.41020311  0.00925064  0.12069064     0.98700
C17         C  0.41406498  0.86583837  0.09747370     0.95100
Al18       Al  0.44577506  0.89671187  0.15951267     1.55600
O19         O  0.43376896  0.96303552  0.06881619    -0.76700
C20         C  0.47170268  0.95597011  0.20115729     0.99200
C21         C  0.37503270  0.90639114  0.16799849     0.94100
O22         O  0.37179620  0.91442411  0.13674134    -0.82000
O23         O  0.10311068  0.00776349  0.38482062    -0.81400
C24         C  0.97747655  0.08591688  0.38089342     0.97900
O25         O  0.97856795  0.05313238  0.38939731    -0.70600
O26         O  0.01261135  0.02933028  0.33835270    -0.74200
Al27       Al  0.01980757  0.02108421  0.38319112     1.49000
C28         C  0.03519699  0.02329828  0.31603164     0.93200
O29         O  0.08390769  0.09100647  0.33727343    -0.80400
O30         O  0.08504770  0.08666614  0.43687105    -0.73900
Al31       Al  0.09146253  0.04989305  0.36195107     1.90100
O32         O  0.07017232  0.12634039  0.37966438    -0.73000
O33         O  0.01851230  0.06659178  0.44618895    -0.72900
O34         O  0.00433633  0.10480645  0.38553898    -0.78500
O35         O  0.02447822  0.01085385  0.42876195    -0.76700
O36         O  0.05225221  0.05493543  0.38536050    -1.12900
O37         O  0.05355735  0.98129128  0.37370053    -0.72000
C38         C  0.08719314  0.97990056  0.37641865     0.98700
C39         C  0.08269400  0.12157388  0.35005451     0.95100
Al40       Al  0.04463329  0.09328603  0.41029902     1.55600
O41         O  0.06827340  0.02469417  0.32295935    -0.76700
C42         C  0.01787284  0.03286170  0.45195304     0.99200
C43         C  0.11586806  0.08687754  0.42492176     0.94100
O44         O  0.12167647  0.07509424  0.39517837    -0.82000
O45         O  0.23472081  0.85774974  0.25662517    -0.81400
C46         C  0.16165853  0.73004767  0.25259777     0.97900
O47         O  0.19357334  0.73061015  0.26290004    -0.70600
O48         O  0.21642776  0.76479030  0.21321724    -0.74200
Al49       Al  0.22418042  0.77249593  0.25753966     1.49000
C50         C  0.22387048  0.78722225  0.19141170     0.93200
O51         O  0.15041842  0.83492987  0.21309796    -0.80400
O52         O  0.15989517  0.83514559  0.31272245    -0.73900
Al53       Al  0.19225355  0.84366896  0.23627750     1.90100
O54         O  0.11775665  0.82203473  0.25699717    -0.73000
O55         O  0.17991543  0.76786652  0.32002746    -0.72900
O56         O  0.14127442  0.75564370  0.25927970    -0.78500
O57         O  0.23454131  0.77718141  0.30290525    -0.76700
O58         O  0.18964490  0.80425131  0.25997888    -1.12900
O59         O  0.26204191  0.80730327  0.24791970    -0.72000
C60         C  0.26217744  0.84133322  0.24775788     0.98700
C61         C  0.12073666  0.83437086  0.22719388     0.95100
Al62       Al  0.15239314  0.79538801  0.28550996     1.55600
O63         O  0.21770470  0.82050928  0.19676772    -0.76700
C64         C  0.21340724  0.76748041  0.32542439     0.99200
C65         C  0.15816741  0.86637217  0.30140529     0.94100
O66         O  0.16774470  0.87304118  0.27111393    -0.82000
O67         O  0.86852489  0.91546333  0.12733802    -0.81400
C68         C  0.01136868  0.90194634  0.14439637     0.97900
O69         O  0.98453426  0.88340244  0.13836418    -0.70600
O70         O  0.91784705  0.86259295  0.14121933    -0.74200
Al71       Al  0.94534839  0.89712794  0.11296188     1.49000
C72         C  0.90597820  0.86562941  0.17132740     0.93200
O73         O  0.92081971  0.96202251  0.20242418    -0.80400
O74         O  0.93686616  0.00708344  0.15247057    -0.73900
Al75       Al  0.89812441  0.93832463  0.16235990     1.90100
O76         O  0.97666016  0.95805323  0.18739737    -0.73000
O77         O  0.96639013  0.97947837  0.09729812    -0.72900
O78         O  0.01091199  0.93488976  0.13623183    -0.78500
O79         O  0.97329864  0.92446044  0.07872390    -0.76700
O80         O  0.93771735  0.93420972  0.13932281    -1.12900
O81         O  0.90668798  0.90771166  0.08612755    -0.72000
C82         C  0.87543625  0.90739633  0.09670172     0.98700
C83         C  0.95382978  0.96383772  0.20955160     0.95100
Al84       Al  0.97028287  0.96755225  0.14272412     1.55600
O85         O  0.90509388  0.89563081  0.18543010    -0.76700
C86         C  0.97362562  0.95829072  0.07364079     0.99200
C87         C  0.90334347  0.00895182  0.14927962     0.94100
O88         O  0.88679987  0.98139651  0.14119054    -0.82000
O89         O  0.82689322  0.12045822  0.24978012    -0.81400
C90         C  0.83668893  0.26337931  0.26824486     0.97900
O91         O  0.85579472  0.23640696  0.26309068    -0.70600
O92         O  0.87737268  0.16913639  0.26657327    -0.74200
Al93       Al  0.84493516  0.19725084  0.23656219     1.49000
C94         C  0.87250335  0.15717497  0.29636766     0.93200
O95         O  0.77512473  0.17370704  0.32205645    -0.80400
O96         O  0.73309348  0.18773695  0.26879915    -0.73900
Al97       Al  0.80165150  0.15031857  0.28348462     1.90100
O98         O  0.77766861  0.22975383  0.30622890    -0.73000
O99         O  0.76466125  0.21723241  0.21555366    -0.72900
O100        O  0.80479326  0.26333331  0.25751780    -0.78500
O101        O  0.82020260  0.22541813  0.20097045    -0.76700
O102        O  0.80645683  0.18974542  0.26055969    -1.12900
O103        O  0.83695290  0.15828027  0.20873683    -0.72000
C104        C  0.83679082  0.12694517  0.21960018     0.98700
C105        C  0.77153967  0.20717719  0.32831792     0.95100
Al106      Al  0.77241593  0.22215204  0.26142169     1.55600
O107        O  0.84218573  0.15802514  0.30916271    -0.76700
C108        C  0.78723397  0.22461578  0.19348103     0.99200
C109        C  0.73288597  0.15371139  0.26633815     0.94100
O110        O  0.76116447  0.13800590  0.25954464    -0.82000
O111        O  0.16273022  0.37441228  0.25239913    -0.81400
C112        C  0.15026486  0.22942530  0.26594068     0.97900
O113        O  0.13237683  0.25620049  0.25809597    -0.70600
O114        O  0.11061295  0.32130930  0.26392154    -0.74200
Al115      Al  0.14679611  0.29671098  0.23518958     1.49000
C116        C  0.11241051  0.33146754  0.29472944     0.93200
O117        O  0.20500642  0.32040396  0.32763423    -0.80400
O118        O  0.25259351  0.30335193  0.28149339    -0.73900
Al119      Al  0.18455439  0.34367234  0.28710570     1.90100
O120        O  0.20054778  0.26412147  0.31308190    -0.73000
O121        O  0.22990201  0.27349072  0.22482694    -0.72900
O122        O  0.18327316  0.22983308  0.25988509    -0.78500
O123        O  0.17714482  0.27056399  0.20160796    -0.76700
O124        O  0.18189344  0.30391501  0.26336402    -1.12900
O125        O  0.15654832  0.33750949  0.20991457    -0.72000
C126        C  0.15430701  0.36854137  0.22176652     0.98700
C127        C  0.20505575  0.28726672  0.33537829     0.95100
Al128      Al  0.21428232  0.27030564  0.26907506     1.55600
O129        O  0.14195110  0.33620409  0.30798785    -0.76700
C130        C  0.21100054  0.26768959  0.19940337     0.99200
C131        C  0.25540510  0.33709609  0.27839675     0.94100
O132        O  0.22903640  0.35475982  0.26855821    -0.82000
O133        O  0.12474078  0.57672299  0.12521297    -0.81400
C134        C  0.98372065  0.59434253  0.13921209     0.97900
O135        O  0.01085161  0.61270323  0.13410706    -0.70600
O136        O  0.07860125  0.62940356  0.13916390    -0.74200
Al137      Al  0.04996080  0.59782675  0.10866499     1.49000
C138        C  0.08839897  0.62426570  0.16966438     0.93200
O139        O  0.06636509  0.52780287  0.19584484    -0.80400
O140        O  0.05284785  0.48605064  0.14564418    -0.73900
Al141      Al  0.09245678  0.55290867  0.15793518     1.90100
O142        O  0.01340084  0.53933621  0.17883588    -0.73000
O143        O  0.02609857  0.51670422  0.09001962    -0.72900
O144        O  0.98241920  0.56237252  0.12805272    -0.78500
O145        O  0.02165260  0.57275197  0.07310738    -0.76700
O146        O  0.05494556  0.55936697  0.13321227    -1.12900
O147        O  0.08894805  0.58627655  0.08249511    -0.72000
C148        C  0.11953103  0.58638271  0.09466124     0.98700
C149        C  0.03273805  0.52659411  0.20064110     0.95100
Al150      Al  0.02105214  0.52795761  0.13502106     1.55600
O151        O  0.08416115  0.59404924  0.18202012    -0.76700
C152        C  0.01886069  0.53901787  0.06748921     0.99200
C153        C  0.08669247  0.48350731  0.14485392     0.94100
O154        O  0.10395116  0.51022032  0.13570369    -0.82000
O155        O  0.88975682  0.49011780  0.37770146    -0.81400
C156        C  0.00476879  0.39787776  0.37922487     0.97900
O157        O  0.00861067  0.43065794  0.38741959    -0.70600
O158        O  0.97764850  0.45309774  0.33685232    -0.74200
Al159      Al  0.97182611  0.46706333  0.37951696     1.49000
C160        C  0.95782726  0.46166674  0.31365751     0.93200
O161        O  0.90138750  0.39886706  0.33995055    -0.80400
O162        O  0.90224321  0.41880859  0.43820521    -0.73900
Al163      Al  0.89772222  0.44394455  0.35997967     1.90100
O164        O  0.90971196  0.36864270  0.38656952    -0.73000
O165        O  0.97029212  0.42830392  0.44513558    -0.72900
O166        O  0.97719519  0.38182363  0.38767937    -0.78500
O167        O  0.96884642  0.48241666  0.42372750    -0.76700
O168        O  0.93608364  0.43776731  0.38425627    -1.12900
O169        O  0.94285982  0.50946277  0.36680022    -0.72000
C170        C  0.90952827  0.51497597  0.36805278     0.98700
C171        C  0.89948306  0.37016041  0.35605684     0.95100
Al172      Al  0.93988682  0.40193219  0.41254751     1.55600
O173        O  0.92427201  0.46269074  0.31923631    -0.76700
C174        C  0.97454818  0.46210401  0.44815578     0.99200
C175        C  0.87136064  0.41777290  0.42684555     0.94100
O176        O  0.86556353  0.42557196  0.39588270    -0.82000
O177        O  0.32887316  0.61557101  0.00423773    -0.81400
C178        C  0.34005993  0.75870637  0.01875000     0.97900
O179        O  0.35894555  0.73202777  0.51233387    -0.70600
O180        O  0.37847597  0.66560243  0.01873492    -0.74200
Al181      Al  0.34621226  0.69209830  0.48784107     1.49000
C182        C  0.37382353  0.65508552  0.04904103     0.93200
O183        O  0.27582468  0.66973269  0.07451011    -0.80400
O184        O  0.23524540  0.68470090  0.02122693    -0.73900
Al185      Al  0.30297729  0.64645142  0.03652331     1.90100
O186        O  0.28046650  0.72557010  0.05922436    -0.73000
O187        O  0.26591322  0.71529013  0.46837853    -0.72900
O188        O  0.30744866  0.75924575  0.01055028    -0.78500
O189        O  0.32127396  0.71968027  0.45192404    -0.76700
O190        O  0.30804881  0.68567816  0.01276670    -1.12900
O191        O  0.33740601  0.65182545  0.46163870    -0.72000
C192        C  0.33863377  0.62104027  0.47390381     0.98700
C193        C  0.27161721  0.70306687  0.08057964     0.95100
Al194      Al  0.27470448  0.71868934  0.01419836     1.55600
O195        O  0.34339602  0.65517255  0.06176904    -0.76700
C196        C  0.28808969  0.72265222  0.44598745     0.99200
C197        C  0.23430041  0.65063626  0.01960793     0.94100
O198        O  0.26218184  0.63394701  0.01284919    -0.82000
O199        O  0.73054391  0.35857105  0.50631172    -0.81400
C200        C  0.66318197  0.22679314  0.99804070     0.97900
O201        O  0.69609939  0.22908729  0.00487330    -0.70600
O202        O  0.71692591  0.26794797  0.45661693    -0.74200
Al203      Al  0.72493349  0.27285822  0.50152590     1.49000
C204        C  0.72071382  0.29226883  0.43569822     0.93200
O205        O  0.64914974  0.33231088  0.46051809    -0.80400
O206        O  0.65827670  0.33100854  0.06023138    -0.73900
Al207      Al  0.68965063  0.34344530  0.48433141     1.90100
O208        O  0.61685109  0.31694034  0.00400823    -0.73000
O209        O  0.68172341  0.26459343  0.06526567    -0.72900
O210        O  0.64285213  0.25208517  0.00555644    -0.78500
O211        O  0.73574058  0.27492342  0.04699903    -0.76700
O212        O  0.68912366  0.30280328  0.00623998    -1.12900
O213        O  0.76098155  0.31052928  0.49428861    -0.72000
C214        C  0.75928012  0.34445397  0.49782138     0.98700
C215        C  0.61955784  0.33000555  0.47446933     0.95100
Al216      Al  0.65266019  0.29152499  0.03196204     1.55600
O217        O  0.71581813  0.32485287  0.44406168    -0.76700
C218        C  0.71520208  0.26566116  0.07020177     0.99200
C219        C  0.65483234  0.36225477  0.04936462     0.94100
O220        O  0.66343987  0.36994427  0.01924519    -0.82000
O221        O  0.36946231  0.41231233  0.37741297    -0.81400
C222        C  0.51222338  0.39656638  0.38994019     0.97900
O223        O  0.48534176  0.37882165  0.38294069    -0.70600
O224        O  0.42005475  0.35945601  0.39022181    -0.74200
Al225      Al  0.44539291  0.39355760  0.35978034     1.49000
C226        C  0.41060296  0.36341835  0.42110471     0.93200
O227        O  0.42373561  0.45893213  0.45004319    -0.80400
O228        O  0.44038401  0.50286810  0.40180492    -0.73900
Al229      Al  0.40042653  0.43564628  0.41051017     1.90100
O230        O  0.47914857  0.45128389  0.43546301    -0.73000
O231        O  0.46923374  0.47601476  0.34599786    -0.72900
O232        O  0.51231646  0.42966993  0.38283865    -0.78500
O233        O  0.47197375  0.42158745  0.32487398    -0.76700
O234        O  0.43931278  0.43060030  0.38665187    -1.12900
O235        O  0.40505233  0.40369907  0.33444890    -0.72000
C236        C  0.37452952  0.40302626  0.34687205     0.98700
C237        C  0.45661855  0.45881838  0.45750780     0.95100
Al238      Al  0.47281983  0.46272569  0.39082428     1.55600
O239        O  0.40820308  0.39414155  0.43316167    -0.76700
C240        C  0.47562455  0.45554621  0.32155875     0.99200
C241        C  0.40680999  0.50568373  0.39911364     0.94100
O242        O  0.38965991  0.47899770  0.38936452    -0.82000
O243        O  0.25765598  0.13768920  0.50596618    -0.81400
C244        C  0.34311767  0.25685693  0.00655278     0.97900
O245        O  0.31101992  0.25932497  0.01628856    -0.70600
O246        O  0.28635680  0.22928492  0.46542739    -0.74200
Al247      Al  0.27624658  0.22110434  0.50922285     1.49000
C248        C  0.27345889  0.21064666  0.44292852     0.93200
O249        O  0.34160568  0.15508178  0.45921857    -0.80400
O250        O  0.33383777  0.14766448  0.05896931    -0.73900
Al251      Al  0.30000023  0.14835215  0.48353268     1.90100
O252        O  0.37593843  0.16369796  0.00308007    -0.73000
O253        O  0.31975417  0.21522185  0.07280948    -0.72900
O254        O  0.36046548  0.22934298  0.01295151    -0.78500
O255        O  0.26498137  0.21584758  0.05429308    -0.76700
O256        O  0.30706549  0.18581427  0.00978153    -1.12900
O257        O  0.23437648  0.19022105  0.49892358    -0.72000
C258        C  0.23082697  0.15623478  0.49933100     0.98700
C259        C  0.37176632  0.15405034  0.47248090     0.95100
Al260      Al  0.34483298  0.18905455  0.03540371     1.55600
O261        O  0.27435870  0.17650392  0.44661039    -0.76700
C262        C  0.28637320  0.21864587  0.07827402     0.99200
C263        C  0.33545696  0.11772337  0.04473911     0.94100
O264        O  0.32463086  0.11402431  0.01436952    -0.82000
O265        O  0.62614604  0.07460672  0.36737050    -0.81400
C266        C  0.48402773  0.09208891  0.38766679     0.97900
O267        O  0.51119459  0.11002137  0.38134217    -0.70600
O268        O  0.57898999  0.12797627  0.38346781    -0.74200
Al269      Al  0.54983152  0.09523888  0.35505745     1.49000
C270        C  0.59113666  0.12366291  0.41323990     0.93200
O271        O  0.57379494  0.02692530  0.44243678    -0.80400
O272        O  0.55591327  0.98459728  0.39340222    -0.73900
Al273      Al  0.59665612  0.05148043  0.40252299     1.90100
O274        O  0.51831966  0.03612257  0.42939245    -0.73000
O275        O  0.52642241  0.01385138  0.33976719    -0.72900
O276        O  0.48382179  0.05923692  0.37907885    -0.78500
O277        O  0.52070054  0.06900779  0.32133093    -0.76700
O278        O  0.55693164  0.05762225  0.38054019    -1.12900
O279        O  0.58764928  0.08406118  0.32700916    -0.72000
C280        C  0.61897212  0.08398440  0.33714907     0.98700
C281        C  0.54070890  0.02471135  0.44965594     0.95100
Al282      Al  0.52353724  0.02572376  0.38455601     1.55600
O283        O  0.59095123  0.09349741  0.42670303    -0.76700
C284        C  0.51959438  0.03516239  0.31642914     0.99200
C285        C  0.58942769  0.98163531  0.39006562     0.94100
O286        O  0.60619633  0.00829156  0.37994400    -0.82000
O287        O  0.66916942  0.87882083  0.99821631    -0.81400
C288        C  0.66268357  0.73561578  0.02474521     0.97900
O289        O  0.64270707  0.76121994  0.51728421    -0.70600
O290        O  0.62087814  0.82763894  0.01796018    -0.74200
Al291      Al  0.65326131  0.79987618  0.48889632     1.49000
C292        C  0.62569176  0.84181530  0.04684133     0.93200
O293        O  0.72398150  0.83377396  0.07121403    -0.80400
O294        O  0.76407263  0.81358609  0.01980251    -0.73900
Al295      Al  0.69602749  0.85207315  0.03227119     1.90100
O296        O  0.71993176  0.77620146  0.06184163    -0.73000
O297        O  0.73424028  0.77761889  0.47070545    -0.72900
O298        O  0.69495443  0.73609971  0.01554449    -0.78500
O299        O  0.67911958  0.77099284  0.45457875    -0.76700
O300        O  0.69161662  0.81028263  0.01215474    -1.12900
O301        O  0.65898774  0.83827953  0.45924195    -0.72000
C302        C  0.65836011  0.87032172  0.46886710     0.98700
C303        C  0.72926738  0.80151761  0.08023595     0.95100
Al304      Al  0.72573704  0.77825130  0.01615334     1.55600
O305        O  0.65627833  0.84483548  0.05865421    -0.76700
C306        C  0.71236095  0.77005935  0.44820660     0.99200
C307        C  0.76471521  0.84729126  0.01546128     0.94100
O308        O  0.73673988  0.86313286  0.00733369    -0.82000
O309        O  0.75813634  0.64050100  0.24469726    -0.81400
C310        C  0.84004851  0.76159267  0.26117563     0.97900
O311        O  0.80768517  0.76198769  0.27088516    -0.70600
O312        O  0.78429588  0.73860291  0.21700610    -0.74200
Al313      Al  0.77363070  0.72397577  0.25884383     1.49000
C314        C  0.77850452  0.72097262  0.19130005     0.93200
O315        O  0.84442244  0.66810645  0.20785379    -0.80400
O316        O  0.82873284  0.64847912  0.30554113    -0.73900
Al317      Al  0.80182379  0.65557073  0.22773085     1.90100
O318        O  0.87544700  0.66598189  0.25374138    -0.73000
O319        O  0.81561336  0.71572714  0.32185794    -0.72900
O320        O  0.85779784  0.73345070  0.26520639    -0.78500
O321        O  0.76124567  0.71263652  0.30260822    -0.76700
O322        O  0.80548102  0.68981928  0.25747241    -1.12900
O323        O  0.73324748  0.69331732  0.24300070    -0.72000
C324        C  0.73112102  0.65934485  0.23981437     0.98700
C325        C  0.87305237  0.66105303  0.22192431     0.95100
Al326      Al  0.84196175  0.69115618  0.28498420     1.55600
O327        O  0.78006185  0.68672956  0.19192072    -0.76700
C328        C  0.78210656  0.71761730  0.32669454     0.99200
C329        C  0.83083434  0.61934091  0.28974018     0.94100
O330        O  0.82392559  0.61841333  0.25801377    -0.82000
O331        O  0.60399961  0.50437229  0.12537489    -0.81400
C332        C  0.48546702  0.59104357  0.13197169     0.97900
O333        O  0.48440553  0.55787985  0.13870364    -0.70600
O334        O  0.51336744  0.53477680  0.08502457    -0.74200
Al335      Al  0.52156468  0.52306732  0.12937820     1.49000
C336        C  0.53455312  0.52700027  0.06197038     0.93200
O337        O  0.58596537  0.59237106  0.08531398    -0.80400
O338        O  0.59517085  0.57584546  0.18425846    -0.73900
Al339      Al  0.59357505  0.54836667  0.10622925     1.90100
O340        O  0.58158439  0.62381523  0.13141624    -0.73000
O341        O  0.52624535  0.56334421  0.19550549    -0.72900
O342        O  0.51318711  0.60803194  0.13890314    -0.78500
O343        O  0.52621593  0.50921197  0.17403823    -0.76700
O344        O  0.55652014  0.55382182  0.13241048    -1.12900
O345        O  0.55183346  0.48148454  0.11776813    -0.72000
C346        C  0.58529650  0.47745780  0.11987200     0.98700
C347        C  0.59059175  0.62156446  0.10028625     0.95100
Al348      Al  0.55387417  0.59020257  0.16072944     1.55600
O349        O  0.56771724  0.52685258  0.06777313    -0.76700
C350        C  0.52089004  0.52968079  0.19865896     0.99200
C351        C  0.62486586  0.57615238  0.16970186     0.94100
O352        O  0.62701076  0.56847157  0.13847946    -0.82000
C353        C  0.69990313  0.64056653  0.22468688    -0.05000
C354        C  0.68565965  0.60963148  0.24017822    -0.02100
C355        C  0.66165859  0.58725908  0.22240973     0.02900
C356        C  0.65545818  0.59266214  0.18769059    -0.05000
C357        C  0.67420577  0.61986568  0.17134104    -0.02100
C358        C  0.69230532  0.64584885  0.19016990     0.02900
C359        C  0.69638553  0.60006947  0.27396801     0.37500
C360        C  0.67662753  0.62057834  0.13482621     0.37500
C361        C  0.70127586  0.67807085  0.17265737     0.35900
C362        C  0.64585474  0.55682766  0.23897145     0.35900
N363        N  0.70463810  0.70213104  0.15491875    -0.38900
N364        N  0.63358920  0.53227326  0.25210958    -0.38900
N365        N  0.68016761  0.62060477  0.10588003    -0.38300
N366        N  0.70524071  0.59162403  0.30065546    -0.38300
C367        C  0.64735115  0.70580734  0.04513016    -0.05000
C368        C  0.63168918  0.71307897  0.07690843    -0.02100
C369        C  0.61364274  0.68605232  0.09508153     0.02900
C370        C  0.60934186  0.65134248  0.08109728    -0.05000
C371        C  0.62604893  0.64426942  0.04910827    -0.02100
C372        C  0.64553659  0.67100912  0.03208080     0.02900
C373        C  0.63507282  0.74847629  0.09155616     0.37500
C374        C  0.62454744  0.60930997  0.03317303     0.37500
C375        C  0.66372082  0.66267530  0.50076375     0.35900
C376        C  0.60019486  0.69434272  0.12845418     0.35900
N377        N  0.67869617  0.65573752  0.47611623    -0.38900
N378        N  0.58979093  0.70106015  0.15519611    -0.38900
N379        N  0.62360835  0.58162810  0.02009120    -0.38300
N380        N  0.63771447  0.77662420  0.10340412    -0.38300
C381        C  0.72782447  0.75852846  0.41519054    -0.05000
C382        C  0.76002917  0.77413953  0.40390487    -0.02100
C383        C  0.77908531  0.75922361  0.37656934     0.02900
C384        C  0.76583243  0.72914414  0.35932563    -0.05000
C385        C  0.73297365  0.71442452  0.36979770    -0.02100
C386        C  0.71414076  0.72903953  0.39745535     0.02900
C387        C  0.77311405  0.80668176  0.41951023     0.37500
C388        C  0.71812181  0.68407952  0.35208648     0.37500
C389        C  0.68078085  0.71340011  0.40770526     0.35900
C390        C  0.81138835  0.77621922  0.36508187     0.35900
N391        N  0.65398027  0.70114733  0.41562972    -0.38900
N392        N  0.83709862  0.78973785  0.35582194    -0.38900
N393        N  0.70577675  0.66016694  0.33790460    -0.38300
N394        N  0.78359385  0.83265967  0.43176822    -0.38300
C395        C  0.76740175  0.74316150  0.16254483    -0.05000
C396        C  0.73970338  0.76884308  0.16743981    -0.02100
C397        C  0.73072439  0.79292360  0.14173833     0.02900
C398        C  0.74839873  0.79091518  0.11081794    -0.05000
C399        C  0.77818782  0.76780881  0.10718716    -0.02100
C400        C  0.78789993  0.74440400  0.13322194     0.02900
C401        C  0.71815742  0.76871521  0.19780827     0.37500
C402        C  0.79809961  0.76641978  0.07602376     0.37500
C403        C  0.81947918  0.72238385  0.13025168     0.35900
C404        C  0.70161940  0.81799751  0.14613261     0.35900
N405        N  0.84493824  0.70523193  0.12800859    -0.38900
N406        N  0.67850948  0.83809285  0.14959907    -0.38900
N407        N  0.81465843  0.76384508  0.05160026    -0.38300
N408        N  0.70050668  0.76891814  0.22167712    -0.38300
C409        C  0.60961017  0.95042866  0.40473878    -0.05000
C410        C  0.59196250  0.91811875  0.41201156    -0.02100
C411        C  0.60765592  0.89246399  0.43340596     0.02900
C412        C  0.64230348  0.89742989  0.44609193    -0.05000
C413        C  0.66135658  0.92785027  0.43656441    -0.02100
C414        C  0.64519718  0.95451999  0.41660482     0.02900
C415        C  0.55752500  0.91094958  0.39746169     0.37500
C416        C  0.69789615  0.93164430  0.44730606     0.37500
C417        C  0.66545102  0.98667851  0.41047503     0.35900
C418        C  0.58698029  0.86194424  0.44402612     0.35900
N419        N  0.68231070  0.01207897  0.40663884    -0.38900
N420        N  0.57010104  0.83794054  0.45266296    -0.38900
N421        N  0.72707422  0.93460272  0.45562396    -0.38300
N422        N  0.53018532  0.90510020  0.38563729    -0.38300
C423        C  0.45388600  0.10939297  0.40723660    -0.05000
C424        C  0.42243127  0.09026586  0.41433170    -0.02100
C425        C  0.39698144  0.10422772  0.43709072     0.02900
C426        C  0.40121041  0.13843644  0.45187232    -0.05000
C427        C  0.43172626  0.15819725  0.44434564    -0.02100
C428        C  0.45760288  0.14427120  0.42186618     0.02900
C429        C  0.41506320  0.05665320  0.39744773     0.37500
C430        C  0.43648603  0.19313233  0.45966099     0.37500
C431        C  0.48746569  0.16691738  0.41362849     0.35900
C432        C  0.36694386  0.08232033  0.44647124     0.35900
N433        N  0.51107990  0.18524778  0.40710985    -0.38900
N434        N  0.34332829  0.06447268  0.45404664    -0.38900
N435        N  0.44058357  0.22089003  0.47196194    -0.38300
N436        N  0.40877647  0.03005823  0.38378336    -0.38300
C437        C  0.50753955  0.51261238  0.23057046    -0.05000
C438        C  0.48305376  0.48373894  0.22888390    -0.02100
C439        C  0.47331659  0.46449589  0.25817398     0.02900
C440        C  0.48824513  0.47312608  0.28965514    -0.05000
C441        C  0.51213451  0.50249552  0.29143124    -0.02100
C442        C  0.52114822  0.52231353  0.26230505     0.02900
C443        C  0.46637667  0.47449517  0.19713915     0.37500
C444        C  0.52792263  0.51261493  0.32335558     0.37500
C445        C  0.54469414  0.55266536  0.26512916     0.35900
C446        C  0.44603666  0.43740848  0.25619968     0.35900
N447        N  0.56309026  0.57717541  0.26746325    -0.38900
N448        N  0.42395733  0.41614416  0.25463721    -0.38900
N449        N  0.54041469  0.52106413  0.34873998    -0.38300
N450        N  0.45298637  0.46689428  0.17193585    -0.38300
C451        C  0.47150271  0.47241719  0.48960608    -0.05000
C452        C  0.50408371  0.45767924  0.00056967    -0.02100
C453        C  0.52795136  0.47829693  0.01958616     0.02900
C454        C  0.51809998  0.51260779  0.03088607    -0.05000
C455        C  0.48508724  0.52699630  0.52062157    -0.02100
C456        C  0.46135472  0.50641351  0.50139235     0.02900
C457        C  0.51196893  0.42040177  0.99374364     0.37500
C458        C  0.47605747  0.56369554  0.52880701     0.37500
C459        C  0.42579620  0.51942347  0.49569685     0.35900
C460        C  0.56287338  0.46446262  0.02696640     0.35900
N461        N  0.39701820  0.52953276  0.49283935    -0.38900
N462        N  0.59125732  0.45429804  0.03218125    -0.38900
N463        N  0.46898011  0.59320622  0.53442516    -0.38300
N464        N  0.51760319  0.39037176  0.98916070    -0.38300
C465        C  0.36086671  0.28406137  0.48512023    -0.05000
C466        C  0.37078113  0.27530339  0.45148781    -0.02100
C467        C  0.38967234  0.29973954  0.43127140     0.02900
C468        C  0.39856642  0.33370897  0.44402385    -0.05000
C469        C  0.39145167  0.34091386  0.47897195    -0.02100
C470        C  0.37201896  0.31662154  0.49883529     0.02900
C471        C  0.36037741  0.24172999  0.43633438     0.37500
C472        C  0.40468103  0.37286937  0.49553452     0.37500
C473        C  0.36390351  0.32501525  0.03372054     0.35900
C474        C  0.40025041  0.28918443  0.39751733     0.35900
N475        N  0.35754379  0.33213050  0.06146893    -0.38900
N476        N  0.40888871  0.27987416  0.37090665    -0.38900
N477        N  0.41497833  0.39823420  0.00901121    -0.38300
N478        N  0.35278018  0.21593433  0.42202264    -0.38300
C479        C  0.58965288  0.34672180  0.45608635    -0.05000
C480        C  0.59174147  0.38351273  0.44814129    -0.02100
C481        C  0.56859060  0.39910281  0.42454593     0.02900
C482        C  0.54157110  0.37854658  0.40936432    -0.05000
C483        C  0.54011381  0.34113473  0.41698229    -0.02100
C484        C  0.56393084  0.32562751  0.44028796     0.02900
C485        C  0.61765495  0.40612434  0.46452401     0.37500
C486        C  0.51492358  0.31768069  0.40053244     0.37500
C487        C  0.56268347  0.28762063  0.44735261     0.35900
C488        C  0.57315365  0.43654489  0.41625018     0.35900
N489        N  0.56166177  0.25733551  0.45297204    -0.38900
N490        N  0.57714902  0.46634508  0.40968322    -0.38900
N491        N  0.49499626  0.29868791  0.38759112    -0.38300
N492        N  0.63777938  0.42525188  0.47695125    -0.38300
C493        C  0.63785717  0.38911643  0.07162399    -0.05000
C494        C  0.60162917  0.38597614  0.08027294    -0.02100
C495        C  0.58467183  0.41286873  0.09963194     0.02900
C496        C  0.60392292  0.44315558  0.11051639    -0.05000
C497        C  0.64152128  0.44281696  0.10620087    -0.02100
C498        C  0.65794521  0.41677269  0.08564671     0.02900
C499        C  0.58112727  0.35601063  0.06786512     0.37500
C500        C  0.66390775  0.46908955  0.12256741     0.37500
C501        C  0.69562540  0.41856927  0.07860554     0.35900
C502        C  0.54734638  0.40938807  0.10758159     0.35900
N503        N  0.72564002  0.42010501  0.57286497    -0.38900
N504        N  0.51759688  0.40640399  0.11394055    -0.38900
N505        N  0.68180914  0.48997209  0.13561394    -0.38300
N506        N  0.56433535  0.33229870  0.05825407    -0.38300
C507        C  0.64698289  0.19627673  0.47910650    -0.05000
C508        C  0.66402707  0.18128942  0.45060753    -0.02100
C509        C  0.64488657  0.15974938  0.42764585     0.02900
C510        C  0.60857019  0.15238136  0.43304042    -0.05000
C511        C  0.59255856  0.16439812  0.46319310    -0.02100
C512        C  0.61123596  0.18675499  0.48565339     0.02900
C513        C  0.70142130  0.18738373  0.44484429     0.37500
C514        C  0.55743711  0.15195275  0.47218975     0.37500
C515        C  0.59357985  0.19932355  0.01602368     0.35900
C516        C  0.66375421  0.14294104  0.39995944     0.35900
N517        N  0.57931442  0.20955571  0.04005190    -0.38900
N518        N  0.68020013  0.12966618  0.37868455    -0.38900
N519        N  0.52978043  0.14148585  0.47977094    -0.38300
N520        N  0.73136360  0.19148480  0.44012579    -0.38300
C521        C  0.35470987  0.59235036  0.45287861    -0.05000
C522        C  0.33598709  0.56098077  0.44583003    -0.02100
C523        C  0.35196585  0.53332692  0.42675316     0.02900
C524        C  0.38703803  0.53728310  0.41344757    -0.05000
C525        C  0.40464043  0.57008483  0.41878991    -0.02100
C526        C  0.38888658  0.59709573  0.43881784     0.02900
C527        C  0.30004815  0.55710478  0.95828057     0.37500
C528        C  0.43943545  0.57609355  0.40433724     0.37500
C529        C  0.40897978  0.62911991  0.44625663     0.35900
C530        C  0.33247598  0.50016643  0.42369498     0.35900
N531        N  0.42545741  0.65439276  0.45202128    -0.38900
N532        N  0.31630144  0.47402031  0.42229016    -0.38900
N533        N  0.46722727  0.58089140  0.39294957    -0.38300
N534        N  0.27128076  0.55389695  0.96780342    -0.38300
C535        C  0.45539663  0.60948735  0.11360883    -0.05000
C536        C  0.42318610  0.59127569  0.10736212    -0.02100
C537        C  0.39789568  0.60550665  0.08489550     0.02900
C538        C  0.40279863  0.63942171  0.06990114    -0.05000
C539        C  0.43336712  0.65894791  0.07775360    -0.02100
C540        C  0.45989853  0.64396029  0.09868928     0.02900
C541        C  0.41530480  0.55776400  0.12399787     0.37500
C542        C  0.43706940  0.69500083  0.06495972     0.37500
C543        C  0.49209668  0.66423937  0.10351768     0.35900
C544        C  0.36713703  0.58418115  0.07643566     0.35900
N545        N  0.51769774  0.68068739  0.10692525    -0.38900
N546        N  0.34295657  0.56662034  0.06994874    -0.38900
N547        N  0.43982806  0.72387389  0.05503372    -0.38300
N548        N  0.40860140  0.53112324  0.13718215    -0.38300
C549        C  0.89214895  0.54658977  0.35143383    -0.05000
C550        C  0.85943675  0.56022730  0.36348985    -0.02100
C551        C  0.83816995  0.58266397  0.34290858     0.02900
C552        C  0.84740486  0.58885118  0.30870419    -0.05000
C553        C  0.87927527  0.57368295  0.29658569    -0.02100
C554        C  0.90308726  0.55660337  0.31878959     0.02900
C555        C  0.84879264  0.55298209  0.39788921     0.37500
C556        C  0.88729203  0.57420368  0.26101172     0.37500
C557        C  0.93982298  0.55283011  0.30900096     0.35900
C558        C  0.80660398  0.59922986  0.35696817     0.35900
N559        N  0.96949788  0.55178997  0.30179122    -0.38900
N560        N  0.78161670  0.61272472  0.36828417    -0.38900
N561        N  0.89314467  0.57264203  0.23246451    -0.38300
N562        N  0.84053151  0.54738416  0.42544441    -0.38300
C563        C  0.78868370  0.36817755  0.48627389    -0.05000
C564        C  0.82407041  0.35750771  0.49042222    -0.02100
C565        C  0.85123886  0.37450230  0.47210942     0.02900
C566        C  0.84329075  0.40307427  0.44952122    -0.05000
C567        C  0.80847208  0.41632321  0.44840307    -0.02100
C568        C  0.78136687  0.39942920  0.46692865     0.02900
C569        C  0.83244251  0.32814960  0.01286887     0.37500
C570        C  0.80043789  0.44754963  0.42818046     0.37500
C571        C  0.74600629  0.41442729  0.46485580     0.35900
C572        C  0.88685022  0.36028966  0.47541339     0.35900
N573        N  0.71826388  0.42744749  0.46279499    -0.38900
N574        N  0.91491373  0.34830973  0.47874874    -0.38900
N575        N  0.79395264  0.47239586  0.41205713    -0.38300
N576        N  0.83909719  0.30472101  0.03071591    -0.38300
C577        C  0.95511712  0.61018395  0.16049115    -0.05000
C578        C  0.96344699  0.62580482  0.19214087    -0.02100
C579        C  0.93718317  0.64307972  0.21178114     0.02900
C580        C  0.90176289  0.64421882  0.20063028    -0.05000
C581        C  0.89329714  0.62683149  0.16935305    -0.02100
C582        C  0.91996912  0.61070882  0.14936486     0.02900
C583        C  0.99881193  0.62295326  0.20586987     0.37500
C584        C  0.85706001  0.62338756  0.15769458     0.37500
C585        C  0.91129753  0.59520792  0.11682128     0.35900
C586        C  0.94693317  0.65907206  0.24381104     0.35900
N587        N  0.90437799  0.58302885  0.09082936    -0.38900
N588        N  0.95484050  0.67151490  0.26943264    -0.38900
N589        N  0.82840767  0.62016942  0.14791519    -0.38300
N590        N  0.02624623  0.62123223  0.21857871    -0.38300
C591        C  0.00522421  0.52357961  0.03555309    -0.05000
C592        C  0.02585055  0.52451856  0.00599836    -0.02100
C593        C  0.01679037  0.50278960  0.47810569     0.02900
C594        C  0.98718864  0.47961034  0.47958594    -0.05000
C595        C  0.96640057  0.47895932  0.00906087    -0.02100
C596        C  0.97536281  0.50077315  0.03686615     0.02900
C597        C  0.05722621  0.54663896  0.00481771     0.37500
C598        C  0.93498332  0.45692002  0.01045141     0.37500
C599        C  0.95367554  0.49964990  0.06709905     0.35900
C600        C  0.03835837  0.50400504  0.44781722     0.35900
N601        N  0.93639701  0.49858620  0.09116237    -0.38900
N602        N  0.05540143  0.50500706  0.42359971    -0.38900
N603        N  0.90975761  0.43956038  0.01191495    -0.38300
N604        N  0.08233348  0.56422178  0.00385224    -0.38300
C605        C  0.01387653  0.50742130  0.22854145    -0.05000
C606        C  0.03297230  0.49043011  0.25408768    -0.02100
C607        C  0.01498009  0.47412744  0.28097310     0.02900
C608        C  0.97675056  0.47287221  0.28207762    -0.05000
C609        C  0.95785646  0.48608049  0.25449063    -0.02100
C610        C  0.97584069  0.50361907  0.22822617     0.02900
C611        C  0.07148236  0.48916634  0.25293785     0.37500
C612        C  0.91951894  0.48284823  0.25341721     0.37500
C613        C  0.95384034  0.51669822  0.20088347     0.35900
C614        C  0.03741002  0.46051456  0.30779469     0.35900
N615        N  0.93548011  0.52639573  0.17947032    -0.38900
N616        N  0.05648911  0.45084612  0.32864324    -0.38900
N617        N  0.88900065  0.48049467  0.25249800    -0.38300
N618        N  0.10207998  0.48762410  0.25222700    -0.38300
C619        C  0.20300340  0.63010476  0.03235885    -0.05000
C620        C  0.16928535  0.64621413  0.03301196    -0.02100
C621        C  0.14237196  0.63236396  0.05380379     0.02900
C622        C  0.14821668  0.60081151  0.07293270    -0.05000
C623        C  0.18035482  0.58230555  0.06919929    -0.02100
C624        C  0.20761005  0.59656967  0.04899203     0.02900
C625        C  0.16183404  0.67643724  0.01132880     0.37500
C626        C  0.18510751  0.54802277  0.08561352     0.37500
C627        C  0.24019971  0.57615335  0.04621722     0.35900
C628        C  0.10914588  0.65183161  0.05610247     0.35900
N629        N  0.26573005  0.55904213  0.04448514    -0.38900
N630        N  0.08288082  0.66781370  0.05737695    -0.38900
N631        N  0.18885270  0.52060748  0.09849871    -0.38300
N632        N  0.15573735  0.70027386  0.49372641    -0.38300
C633        C  0.34531576  0.38832921  0.32592729    -0.05000
C634        C  0.34963694  0.35514774  0.30894857    -0.02100
C635        C  0.32082587  0.33903928  0.29221504     0.02900
C636        C  0.28755379  0.35645618  0.29103214    -0.05000
C637        C  0.28447295  0.39139848  0.30541461    -0.02100
C638        C  0.31314299  0.40691059  0.32284436     0.02900
C639        C  0.38372944  0.33713007  0.30856290     0.37500
C640        C  0.25155691  0.41145252  0.30417325     0.37500
C641        C  0.30995468  0.44281849  0.33649749     0.35900
C642        C  0.32572164  0.30435487  0.27630276     0.35900
N643        N  0.30733360  0.47167135  0.34679614    -0.38900
N644        N  0.32971056  0.27661025  0.26383879    -0.38900
N645        N  0.22564314  0.42804856  0.30366537    -0.38300
N646        N  0.41091549  0.32280082  0.30740300    -0.38300
C647        C  0.23002026  0.25541436  0.16792142    -0.05000
C648        C  0.21742747  0.22613096  0.14895672    -0.02100
C649        C  0.23727851  0.21249485  0.12133758     0.02900
C650        C  0.27027936  0.22781644  0.11201278    -0.05000
C651        C  0.28392617  0.25557386  0.13220370    -0.02100
C652        C  0.26390468  0.26956848  0.15960426     0.02900
C653        C  0.18485180  0.20867097  0.15888006     0.37500
C654        C  0.31850160  0.27012658  0.12467021     0.37500
C655        C  0.27830316  0.29914550  0.17889779     0.35900
C656        C  0.22404171  0.18167650  0.10302139     0.35900
N657        N  0.28993805  0.32258403  0.19435416    -0.38900
N658        N  0.21355284  0.15709311  0.08842179    -0.38900
N659        N  0.34634732  0.28139003  0.11906423    -0.38300
N660        N  0.15898939  0.19465739  0.16701876    -0.38300
C661        C  0.21537216  0.27304724  0.36878611    -0.05000
C662        C  0.24229643  0.28909574  0.38740004    -0.02100
C663        C  0.25970526  0.26945759  0.41263054     0.02900
C664        C  0.25443207  0.23139016  0.41588464    -0.05000
C665        C  0.22589528  0.21628875  0.39802162    -0.02100
C666        C  0.20447081  0.23821214  0.37758125     0.02900
C667        C  0.25173174  0.32612446  0.38132789     0.37500
C668        C  0.21755014  0.17875800  0.40115778     0.37500
C669        C  0.16913453  0.22689419  0.36870842     0.35900
C670        C  0.27998303  0.29053275  0.43642713     0.35900
N671        N  0.14008231  0.21926791  0.36327879    -0.38900
N672        N  0.29394307  0.30929842  0.45535921    -0.38900
N673        N  0.21128683  0.14862228  0.40308862    -0.38300
N674        N  0.25933726  0.35564878  0.37694867    -0.38300
C675        C  0.08105842  0.34130268  0.31636497    -0.05000
C676        C  0.04949775  0.35465551  0.30234618    -0.02100
C677        C  0.02412297  0.37193886  0.32310550     0.02900
C678        C  0.03092192  0.37811877  0.35785694    -0.05000
C679        C  0.06021148  0.36116531  0.37255056    -0.02100
C680        C  0.08461449  0.34205082  0.35219517     0.02900
C681        C  0.04263991  0.35058883  0.26664333     0.37500
C682        C  0.06420602  0.36189476  0.40889685     0.37500
C683        C  0.11267659  0.32218421  0.36866894     0.35900
C684        C  0.99035368  0.38129936  0.30836945     0.35900
N685        N  0.13471507  0.30638127  0.38232885    -0.38900
N686        N  0.96365039  0.38667988  0.29509569    -0.38900
N687        N  0.06707744  0.36215157  0.43790906    -0.38300
N688        N  0.03649289  0.34723224  0.23828565    -0.38300
C689        C  0.13899527  0.39719684  0.19977999    -0.05000
C690        C  0.10843257  0.39042678  0.17987502    -0.02100
C691        C  0.09197767  0.41811318  0.16129492     0.02900
C692        C  0.10645807  0.45276333  0.16093535    -0.05000
C693        C  0.13899475  0.45854080  0.17868677    -0.02100
C694        C  0.15464074  0.43108069  0.19810895     0.02900
C695        C  0.09354570  0.35483809  0.17806740     0.37500
C696        C  0.15696171  0.49271068  0.17834214     0.37500
C697        C  0.18808784  0.43729531  0.21508181     0.35900
C698        C  0.06039781  0.41053025  0.14187339     0.35900
N699        N  0.21497042  0.44245923  0.22807486    -0.38900
N700        N  0.03522644  0.40444584  0.12636739    -0.38900
N701        N  0.17236117  0.51937343  0.17885848    -0.38300
N702        N  0.08171888  0.32646246  0.17588563    -0.38300
C703        C  0.64639678  0.09820818  0.31374442    -0.05000
C704        C  0.67906790  0.08077356  0.31005078    -0.02100
C705        C  0.70706981  0.09757998  0.29283473     0.02900
C706        C  0.70182351  0.13148161  0.27698399    -0.05000
C707        C  0.66718854  0.14540779  0.27550549    -0.02100
C708        C  0.63995639  0.12989321  0.29498588     0.02900
C709        C  0.68355311  0.04488773  0.32306710     0.37500
C710        C  0.65995035  0.17701197  0.25555353     0.37500
C711        C  0.60632420  0.14858696  0.29758239     0.35900
C712        C  0.74129408  0.07985722  0.29344286     0.35900
N713        N  0.57980641  0.16406412  0.29957272    -0.38900
N714        N  0.76815158  0.06491862  0.29466523    -0.38900
N715        N  0.65424798  0.20228353  0.23975309    -0.38300
N716        N  0.68717782  0.01591096  0.33248179    -0.38300
C717        C  0.73223910  0.25535549  0.10267553    -0.05000
C718        C  0.75678169  0.27895710  0.11797160    -0.02100
C719        C  0.77700865  0.26809001  0.14613780     0.02900
C720        C  0.77293370  0.23352457  0.15949626    -0.05000
C721        C  0.74887210  0.20968040  0.14381031    -0.02100
C722        C  0.72908170  0.22035584  0.11529392     0.02900
C723        C  0.76081488  0.31487116  0.10493175     0.37500
C724        C  0.74435888  0.17397900  0.15725142     0.37500
C725        C  0.70679991  0.19477755  0.09795367     0.35900
C726        C  0.80065433  0.29314713  0.16243941     0.35900
N727        N  0.68928944  0.17431842  0.08387218    -0.38900
N728        N  0.81946654  0.31315431  0.17552015    -0.38900
N729        N  0.74073153  0.14565473  0.16825918    -0.38300
N730        N  0.76391862  0.34341219  0.09429182    -0.38300
C731        C  0.73288793  0.27949925  0.40257226    -0.05000
C732        C  0.76952595  0.27380252  0.39818876    -0.02100
C733        C  0.78215120  0.24552624  0.37775057     0.02900
C734        C  0.75840500  0.22335701  0.36003053    -0.05000
C735        C  0.72172460  0.23037884  0.36325469    -0.02100
C736        C  0.70910141  0.25806733  0.38438220     0.02900
C737        C  0.79457809  0.29671820  0.41506800     0.37500
C738        C  0.69632335  0.20985631  0.34453801     0.37500
C739        C  0.67125657  0.26358466  0.38890138     0.35900
C740        C  0.81995207  0.23983955  0.37407038     0.35900
N741        N  0.64116745  0.26799471  0.39268378    -0.38900
N742        N  0.85012462  0.23538487  0.37138163    -0.38900
N743        N  0.67409921  0.19468348  0.33080929    -0.38300
N744        N  0.81565326  0.31467837  0.42749367    -0.38300
C745        C  0.88302708  0.33945852  0.33834959    -0.05000
C746        C  0.90442285  0.31587850  0.31968653    -0.02100
C747        C  0.88964025  0.29474831  0.29382523     0.02900
C748        C  0.85218225  0.29292848  0.28941903    -0.05000
C749        C  0.83050884  0.31516066  0.30997631    -0.02100
C750        C  0.84599274  0.33899836  0.33344878     0.02900
C751        C  0.94153727  0.31199771  0.32817935     0.37500
C752        C  0.79225568  0.31345945  0.30781911     0.37500
C753        C  0.82353928  0.36276749  0.35309768     0.35900
C754        C  0.91367619  0.27562888  0.27141626     0.35900
N755        N  0.80517573  0.38141675  0.36863223    -0.38900
N756        N  0.93298378  0.26044656  0.25369575    -0.38900
N757        N  0.76168396  0.31229663  0.30650145    -0.38300
N758        N  0.97087117  0.30753876  0.33540576    -0.38300
C759        C  0.84789643  0.89482970  0.07271276    -0.05000
C760        C  0.85483053  0.86461930  0.05180288    -0.02100
C761        C  0.82920327  0.85245573  0.02880583     0.02900
C762        C  0.79553075  0.86849100  0.02793158    -0.05000
C763        C  0.79017076  0.90123931  0.04576417     0.02700
C764        C  0.81618254  0.91403019  0.06826056     0.02900
C765        C  0.88774974  0.84472525  0.05458880     0.37500
C766        C  0.75826953  0.92237358  0.04127452     0.37500
C767        C  0.81069638  0.94761014  0.08593590     0.35900
C768        C  0.83777538  0.82397546  0.00520041     0.35900
N769        N  0.80611195  0.97466397  0.09949161    -0.38900
N770        N  0.84471559  0.80150258  0.98615308    -0.38900
N771        N  0.73324391  0.93992046  0.03783637    -0.38300
N772        N  0.91388095  0.82861432  0.05648486    -0.38300
C773        C  0.85701542  0.79137631  0.24102479    -0.05000
C774        C  0.89458559  0.79307086  0.23764819    -0.02100
C775        C  0.91064327  0.81554561  0.21336695     0.02900
C776        C  0.88989853  0.83556433  0.19079085    -0.05000
C777        C  0.85260680  0.83400573  0.19401654    -0.02100
C778        C  0.83646923  0.81386886  0.22003157     0.02900
C779        C  0.91733336  0.77280024  0.26002131     0.37500
C780        C  0.83042744  0.85301768  0.17023827     0.37500
C781        C  0.79886895  0.81814580  0.22597838     0.35900
C782        C  0.94879804  0.81855783  0.21223270     0.35900
N783        N  0.76903508  0.82266392  0.23115005    -0.38900
N784        N  0.97931033  0.82050460  0.21203597    -0.38900
N785        N  0.81216431  0.86737777  0.15120396    -0.38300
N786        N  0.93569234  0.75665964  0.27766323    -0.38300
C787        C  0.88269588  0.04132488  0.16024943    -0.05000
C788        C  0.89881402  0.07528482  0.16075968    -0.02100
C789        C  0.88328049  0.10362406  0.17928926     0.02900
C790        C  0.85099031  0.09849470  0.19702939    -0.05000
C791        C  0.83264989  0.06631998  0.19292779    -0.02100
C792        C  0.84835515  0.03764758  0.17512111     0.02900
C793        C  0.93221409  0.08083470  0.14345229     0.37500
C794        C  0.79708296  0.06297929  0.20646794     0.37500
C795        C  0.82939026  0.00403530  0.17469052     0.35900
C796        C  0.90194029  0.13735867  0.18148776     0.35900
N797        N  0.81358672  0.97762743  0.17513895    -0.38900
N798        N  0.91703419  0.16414998  0.18293642    -0.38900
N799        N  0.76851388  0.06034413  0.21667604    -0.38300
N800        N  0.95892663  0.08523142  0.12979729    -0.38300
C801        C  0.14750230  0.70141444  0.23035987    -0.05000
C802        C  0.14201101  0.66685493  0.24250858    -0.02100
C803        C  0.12216049  0.64201443  0.22340218     0.02900
C804        C  0.10746247  0.65157719  0.19117989    -0.05000
C805        C  0.11337091  0.68656625  0.17938579    -0.02100
C806        C  0.13387821  0.71075972  0.19839174     0.02900
C807        C  0.15577698  0.65728879  0.27540333     0.37500
C808        C  0.09697773  0.69891384  0.14852912     0.37500
C809        C  0.14050846  0.74580727  0.18467577     0.35900
C810        C  0.11656050  0.60710229  0.23829102     0.35900
N811        N  0.14468978  0.77350471  0.17268301    -0.38900
N812        N  0.11214847  0.57947482  0.25054576    -0.38900
N813        N  0.08363387  0.70946141  0.12431431    -0.38300
N814        N  0.16673902  0.64965578  0.30160720    -0.38300
C815        C  0.22991862  0.75446240  0.35725402    -0.05000
C816        C  0.22991029  0.77629836  0.38625412    -0.02100
C817        C  0.25091058  0.76703364  0.41442741     0.02900
C818        C  0.27310548  0.73633196  0.41367741    -0.05000
C819        C  0.27446123  0.71545366  0.38407247    -0.02100
C820        C  0.25279387  0.72424737  0.35615578     0.02900
C821        C  0.20983921  0.80942982  0.38635243     0.37500
C822        C  0.29799950  0.68478892  0.38242752     0.37500
C823        C  0.25421723  0.70220392  0.32601953     0.35900
C824        C  0.25032273  0.78973496  0.44413734     0.35900
N825        N  0.25538844  0.68466727  0.30195388    -0.38900
N826        N  0.24992579  0.80791747  0.46778912    -0.38900
N827        N  0.31707480  0.66054535  0.38097730    -0.38300
N828        N  0.19416555  0.83606432  0.38620582    -0.38300
C829        C  0.24085084  0.77139227  0.16115616    -0.05000
C830        C  0.22297840  0.77261555  0.13041948    -0.02100
C831        C  0.22878555  0.74555109  0.10623973     0.02900
C832        C  0.25509895  0.71875548  0.11112927    -0.05000
C833        C  0.27316274  0.71751949  0.14185890    -0.02100
C834        C  0.26712731  0.74440048  0.16624532     0.02900
C835        C  0.19846593  0.80165138  0.12383775     0.37500
C836        C  0.29771195  0.68846088  0.14846762     0.37500
C837        C  0.28836552  0.74417447  0.19666331     0.35900
C838        C  0.20672745  0.74481738  0.07647907     0.35900
N839        N  0.30579319  0.74335855  0.22058235    -0.38900
N840        N  0.18839003  0.74463340  0.05320842    -0.38900
N841        N  0.31722135  0.66524249  0.15379620    -0.38300
N842        N  0.17915491  0.82508131  0.11873130    -0.38300
C843        C  0.09090473  0.85158425  0.20854854    -0.05000
C844        C  0.09132891  0.88900790  0.20310834    -0.02100
C845        C  0.06608310  0.90558788  0.18191540     0.02900
C846        C  0.04165494  0.88474179  0.16334027    -0.05000
C847        C  0.04345070  0.84679450  0.16682939    -0.02100
C848        C  0.06634505  0.83078013  0.19068346     0.02900
C849        C  0.11796181  0.91102949  0.21914490     0.37500
C850        C  0.02240408  0.82354253  0.14550005     0.37500
C851        C  0.06429444  0.79273798  0.19699212     0.35900
C852        C  0.06510435  0.94430342  0.18028148     0.35900
N853        N  0.06176549  0.76248940  0.20227054    -0.38900
N854        N  0.06434901  0.97519426  0.17933494    -0.38900
N855        N  0.00564021  0.80484761  0.12865731    -0.38300
N856        N  0.13892612  0.92952793  0.23117699    -0.38300
C857        C  0.09959599  0.15039010  0.33013882    -0.05000
C858        C  0.07900794  0.17629138  0.31380465    -0.02100
C859        C  0.09492251  0.20060954  0.29121747     0.02900
C860        C  0.13231321  0.19956434  0.28484419    -0.05000
C861        C  0.15251963  0.17229888  0.30050784    -0.02100
C862        C  0.13622546  0.14791001  0.32265595     0.02900
C863        C  0.04101780  0.17698218  0.31924792     0.37500
C864        C  0.19053335  0.16977023  0.29544851     0.37500
C865        C  0.15784223  0.12035943  0.33808632     0.35900
C866        C  0.07200450  0.22645172  0.27481024     0.35900
N867        N  0.17592957  0.09866539  0.34968888    -0.38900
N868        N  0.05351145  0.24702998  0.26201033    -0.38900
N869        N  0.22088036  0.16772625  0.29180232    -0.38300
N870        N  0.01069146  0.17751293  0.32328981    -0.38300
C871        C  0.14434409  0.10398322  0.44558614    -0.05000
C872        C  0.14160255  0.14054575  0.45485357    -0.02100
C873        C  0.16818275  0.15719607  0.47457996     0.02900
C874        C  0.19801757  0.13748781  0.48588861    -0.05000
C875        C  0.19847694  0.09978977  0.47927173    -0.02100
C876        C  0.17249182  0.08366958  0.45849283     0.02900
C877        C  0.11171527  0.16168572  0.44338320     0.37500
C878        C  0.22523026  0.07672427  0.99390377     0.37500
C879        C  0.17422850  0.04573494  0.45090565     0.35900
C880        C  0.16440037  0.19477166  0.48301766     0.35900
N881        N  0.17549464  0.01549317  0.44482266    -0.38900
N882        N  0.16117607  0.22473862  0.48971121    -0.38900
N883        N  0.24637121  0.05813179  0.00565752    -0.38300
N884        N  0.08799968  0.17895664  0.43464458    -0.38300
C885        C  0.00764244  0.01711436  0.48517651    -0.05000
C886        C  0.97261924  0.02043431  0.49725284    -0.02100
C887        C  0.96107986  0.99998242  0.02517250     0.02900
C888        C  0.98406702  0.97495264  0.04079858    -0.05000
C889        C  0.01896995  0.97136950  0.02844146    -0.02100
C890        C  0.03070483  0.99237463  0.00096621     0.02900
C891        C  0.94789169  0.04346518  0.47968239     0.37500
C892        C  0.04322552  0.94690378  0.04480353     0.37500
C893        C  0.06684341  0.98870125  0.98894152     0.35900
C894        C  0.92513436  0.00426286  0.03753508     0.35900
N895        N  0.09564547  0.98593260  0.97925830    -0.38900
N896        N  0.89647952  0.00770761  0.04743686    -0.38900
N897        N  0.06244961  0.92732656  0.05798745    -0.38300
N898        N  0.92830792  0.06165020  0.46526744    -0.38300
C899        C  0.96888039  0.97653020  0.24192840    -0.05000
C900        C  0.99834135  0.95748807  0.25469676    -0.02100
C901        C  0.02426031  0.97490987  0.27422517     0.02900
C902        C  0.01986971  0.01087453  0.28370543    -0.05000
C903        C  0.99045908  0.03001431  0.27098229    -0.02100
C904        C  0.96480615  0.01274494  0.25095129     0.02900
C905        C  0.00213783  0.91970340  0.24723208     0.37500
C906        C  0.98708424  0.06793644  0.27825287     0.37500
C907        C  0.93410977  0.03237404  0.23991324     0.35900
C908        C  0.05631079  0.95620243  0.28306534     0.35900
N909        N  0.90931741  0.04842722  0.23220566    -0.38900
N910        N  0.08241584  0.94123072  0.28853777    -0.38900
N911        N  0.98473087  0.09824025  0.28376623    -0.38300
N912        N  0.00508029  0.88949926  0.24160339    -0.38300
C913        C  0.94650742  0.10301424  0.36305369    -0.05000
C914        C  0.94283034  0.14086586  0.36332337    -0.02100
C915        C  0.92153272  0.15851429  0.33921146     0.02900
C916        C  0.90065465  0.13884586  0.31649812    -0.05000
C917        C  0.90071280  0.10100477  0.31915922    -0.02100
C918        C  0.92418434  0.08319819  0.34142285     0.02900
C919        C  0.95962465  0.16190103  0.38956337     0.37500
C920        C  0.87572921  0.07993896  0.29993441     0.37500
C921        C  0.92519975  0.04446194  0.34162308     0.35900
C922        C  0.92075244  0.19715115  0.33831324     0.35900
N923        N  0.92574476  0.01354603  0.34162235    -0.38900
N924        N  0.92080215  0.22802156  0.33787713    -0.38900
N925        N  0.85581077  0.06217253  0.28553203    -0.38300
N926        N  0.97271900  0.17858384  0.41070436    -0.38300
C927        C  0.14194790  0.89423586  0.32366081    -0.05000
C928        C  0.10912487  0.88768280  0.34006796    -0.02100
C929        C  0.09283479  0.91438488  0.36026030     0.02900
C930        C  0.10853847  0.94838601  0.36370636    -0.05000
C931        C  0.14318488  0.95342523  0.34982370    -0.02100
C932        C  0.15925081  0.92673266  0.32953192     0.02900
C933        C  0.09026667  0.85458525  0.33403330     0.37500
C934        C  0.16281433  0.98613201  0.35534946     0.37500
C935        C  0.19384460  0.93267882  0.31460479     0.35900
C936        C  0.05954314  0.90684094  0.37703014     0.35900
N937        N  0.22138962  0.93732140  0.30263757    -0.38900
N938        N  0.03306385  0.90071030  0.39047972    -0.38900
N939        N  0.17905026  0.01190533  0.35954428    -0.38300
N940        N  0.07473198  0.82848204  0.32925887    -0.38300
C941        C  0.39886092  0.83546458  0.07749213    -0.05000
C942        C  0.39942454  0.83638068  0.04166658    -0.02100
C943        C  0.37694421  0.81398473  0.02259180     0.02900
C944        C  0.35701338  0.78743617  0.03871185    -0.05000
C945        C  0.36183792  0.78228093  0.07366604    -0.02100
C946        C  0.38032311  0.80744364  0.09328381     0.02900
C947        C  0.42589532  0.85732248  0.02429687     0.37500
C948        C  0.35257175  0.74861191  0.08890323     0.37500
C949        C  0.38077498  0.80312622  0.12953379     0.35900
C950        C  0.37636323  0.81633418  0.48617130     0.35900
N951        N  0.38069890  0.79862849  0.15832468    -0.38900
N952        N  0.37574702  0.81794449  0.45708167    -0.38900
N953        N  0.34773087  0.72131825  0.10145771    -0.38300
N954        N  0.44787354  0.87293605  0.01046370    -0.38300
C955        C  0.50859078  0.01820637  0.28438778    -0.05000
C956        C  0.47360614  0.02241547  0.27281827    -0.02100
C957        C  0.46024380  0.99918108  0.24784366     0.02900
C958        C  0.48204760  0.97217625  0.23362645    -0.05000
C959        C  0.51697824  0.96786673  0.24520091    -0.02100
C960        C  0.53015674  0.99063702  0.27057896     0.02900
C961        C  0.45102326  0.04986227  0.28740473     0.37500
C962        C  0.53977404  0.94088255  0.23004178     0.37500
C963        C  0.56615245  0.98574816  0.28252161     0.35900
C964        C  0.42371945  0.00252933  0.23699665     0.35900
N965        N  0.59478427  0.98179820  0.29215197    -0.38900
N966        N  0.39455992  0.00481917  0.22838182    -0.38900
N967        N  0.55777476  0.91931563  0.21781326    -0.38300
N968        N  0.43314501  0.07190601  0.29901169    -0.38300
C969        C  0.48593382  0.98188856  0.03587068    -0.05000
C970        C  0.47401378  0.97473858  0.50318939    -0.02100
C971        C  0.49467437  0.98482523  0.47531014     0.02900
C972        C  0.52569475  0.00609873  0.47946114    -0.05000
C973        C  0.53760171  0.01373874  0.01201570    -0.02100
C974        C  0.51836796  0.00127531  0.04012794     0.02900
C975        C  0.44041217  0.95693540  0.49791828     0.37500
C976        C  0.56901960  0.03542589  0.01661523     0.37500
C977        C  0.53196726  0.01011319  0.07328157     0.35900
C978        C  0.48392268  0.97173060  0.44245863     0.35900
N979        N  0.54351789  0.01766487  0.09931994    -0.38900
N980        N  0.47428155  0.96031921  0.41695668    -0.38900
N981        N  0.59404783  0.05271697  0.02023882    -0.38300
N982        N  0.41338763  0.94331825  0.49343312    -0.38300
C983        C  0.39219451  0.04227023  0.10762517    -0.05000
C984        C  0.35503798  0.04679990  0.11095089    -0.02100
C985        C  0.33616933  0.06989788  0.08909785     0.02900
C986        C  0.35414171  0.08891996  0.06369716    -0.05000
C987        C  0.39174469  0.08742674  0.06320249    -0.02100
C988        C  0.41048780  0.06528070  0.08571769     0.02900
C989        C  0.33674008  0.03013791  0.13882490     0.37500
C990        C  0.41248194  0.10919043  0.04055332     0.37500
C991        C  0.44876872  0.06797055  0.08732892     0.35900
C992        C  0.29837413  0.07508912  0.09348441     0.35900
N993        N  0.47913868  0.07130432  0.08889458    -0.38900
N994        N  0.26826267  0.07950820  0.09706718    -0.38900
N995        N  0.43194843  0.12534946  0.52410679    -0.38300
N996        N  0.32247201  0.01759140  0.16167511    -0.38300
C997        C  0.34583748  0.89058318  0.18876518    -0.05000
C998        C  0.31069912  0.90263055  0.18576255    -0.02100
C999        C  0.28413553  0.88956894  0.20762206     0.02900
C1000       C  0.29157175  0.86130410  0.23070354    -0.05000
C1001       C  0.32666801  0.84899205  0.23338785    -0.02100
C1002       C  0.35368208  0.86389509  0.21331291     0.02900
C1003       C  0.30149679  0.92825415  0.15984847     0.37500
C1004       C  0.33530663  0.82117159  0.25743646     0.37500
C1005       C  0.38935887  0.85008343  0.21761014     0.35900
C1006       C  0.24934445  0.90588448  0.20550341     0.35900
N1007       N  0.41747699  0.83846077  0.22157893    -0.38900
N1008       N  0.22223279  0.92016804  0.20309804    -0.38900
N1009       N  0.34227245  0.79895356  0.27650456    -0.38300
N1010       N  0.29370805  0.94803524  0.13879272    -0.38300
C1011       C  0.59619975  0.85684908  0.06732356    -0.05000
C1012       C  0.60085883  0.88988423  0.08434325    -0.02100
C1013       C  0.57554667  0.90234579  0.10777481     0.02900
C1014       C  0.54357804  0.88351960  0.11266364    -0.05000
C1015       C  0.53874401  0.85051078  0.09474646    -0.02100
C1016       C  0.56505271  0.83737643  0.07253196     0.02900
C1017       C  0.63117285  0.91224160  0.07682410     0.37500
C1018       C  0.50698471  0.82917903  0.09854725     0.37500
C1019       C  0.56030229  0.80328984  0.05547500     0.35900
C1020       C  0.58336401  0.93420054  0.12733900     0.35900
N1021       N  0.55652229  0.77616877  0.04186750    -0.38900
N1022       N  0.58995019  0.95941666  0.14304978    -0.38900
N1023       N  0.48206539  0.81154494  0.10121806    -0.38300
N1024       N  0.65502504  0.93045792  0.07089048    -0.38300
O1025       O  0.39169022  0.98184766  0.62503708    -0.81400
C1026       C  0.51383108  0.89985572  0.63290498     0.97900
O1027       O  0.51376176  0.93251236  0.64223517    -0.70600
O1028       O  0.48703721  0.95719037  0.58925502    -0.74200
Al1029     Al  0.47528095  0.96619565  0.63314161     1.49000
C1030       C  0.46746969  0.96622286  0.56567429     0.93200
O1031       O  0.41654859  0.89554632  0.58315893    -0.80400
O1032       O  0.40456556  0.90935680  0.68203163    -0.73900
Al1033     Al  0.40588246  0.93834147  0.60535178     1.90100
O1034       O  0.42117337  0.86343690  0.62883162    -0.73000
O1035       O  0.47089467  0.92234017  0.69589025    -0.72900
O1036       O  0.48688700  0.88144774  0.63839761    -0.78500
O1037       O  0.46630713  0.97743325  0.67767327    -0.76700
O1038       O  0.44212735  0.93379040  0.63267997    -1.12900
O1039       O  0.44382096  0.00636030  0.62171763    -0.72000
C1040       C  0.41021410  0.00924009  0.62069787     0.98700
C1041       C  0.41409269  0.86582046  0.59749712     0.95100
Al1042     Al  0.44579603  0.89670419  0.65953140     1.55600
O1043       O  0.43378697  0.96301447  0.56882696    -0.76700
C1044       C  0.47172142  0.95596558  0.70117004     0.99200
C1045       C  0.37505169  0.90638113  0.66801556     0.94100
O1046       O  0.37181652  0.91441092  0.63675742    -0.82000
O1047       O  0.10310925  0.00778371  0.88480242    -0.81400
C1048       C  0.97746187  0.08592038  0.88087712     0.97900
O1049       O  0.97855698  0.05313635  0.88938337    -0.70600
O1050       O  0.01260132  0.02932747  0.83834353    -0.74200
Al1051     Al  0.01980093  0.02109120  0.88318247     1.49000
C1052       C  0.03518703  0.02330395  0.81602078     0.93200
O1053       O  0.08388612  0.09102179  0.83725756    -0.80400
O1054       O  0.08503161  0.08668416  0.93685452    -0.73900
Al1055     Al  0.09144979  0.04991016  0.86193472     1.90100
O1056       O  0.07015567  0.12635497  0.87964995    -0.73000
O1057       O  0.01849637  0.06660963  0.94617387    -0.72900
O1058       O  0.00431976  0.10481369  0.88552062    -0.78500
O1059       O  0.02447312  0.01087000  0.92875607    -0.76700
O1060       O  0.05224033  0.05494752  0.88534665    -1.12900
O1061       O  0.05355781  0.98130105  0.87369562    -0.72000
C1062       C  0.08719470  0.97991681  0.87640805     0.98700
C1063       C  0.08267703  0.12158837  0.85004040     0.95100
Al1064     Al  0.04461714  0.09330007  0.91028270     1.55600
O1065       O  0.06826334  0.02470726  0.82294575    -0.76700
C1066       C  0.01786273  0.03288097  0.95194374     0.99200
C1067       C  0.11585183  0.08689556  0.92490437     0.94100
O1068       O  0.12166031  0.07511429  0.89516045    -0.82000
O1069       O  0.23472562  0.85774337  0.75662688    -0.81400
C1070       C  0.16164413  0.73004985  0.75258888     0.97900
O1071       O  0.19355842  0.73060906  0.76289107    -0.70600
O1072       O  0.21640593  0.76479382  0.71320737    -0.74200
Al1073     Al  0.22416753  0.77249155  0.75752995     1.49000
C1074       C  0.22385134  0.78722736  0.69140416     0.93200
O1075       O  0.15041534  0.83494846  0.71310238    -0.80400
O1076       O  0.15988860  0.83514372  0.81272391    -0.73900
Al1077     Al  0.19225243  0.84367454  0.73628067     1.90100
O1078       O  0.11775186  0.82204187  0.75699766    -0.73000
O1079       O  0.17990483  0.76786223  0.82001811    -0.72900
O1080       O  0.14126277  0.75564835  0.75927116    -0.78500
O1081       O  0.23453258  0.77716840  0.80289480    -0.76700
O1082       O  0.18963744  0.80425287  0.75997621    -1.12900
O1083       O  0.26203435  0.80729252  0.74790988    -0.72000
C1084       C  0.26217836  0.84132223  0.74775490     0.98700
C1085       C  0.12073347  0.83438518  0.72719758     0.95100
Al1086     Al  0.15238481  0.79538970  0.78550598     1.55600
O1087       O  0.21769548  0.82051536  0.69676563    -0.76700
C1088       C  0.21339686  0.76746647  0.82541275     0.99200
C1089       C  0.15816768  0.86637321  0.80141258     0.94100
O1090       O  0.16774915  0.87304624  0.77112287    -0.82000
O1091       O  0.86850683  0.91545895  0.62733743    -0.81400
C1092       C  0.01134962  0.90194114  0.64440701     0.97900
O1093       O  0.98451483  0.88339683  0.63837896    -0.70600
O1094       O  0.91782941  0.86259043  0.64123504    -0.74200
Al1095     Al  0.94533169  0.89711744  0.61297140     1.49000
C1096       C  0.90596071  0.86563415  0.67134240     0.93200
O1097       O  0.92079813  0.96203737  0.70241833    -0.80400
O1098       O  0.93684945  0.00708354  0.65245443    -0.73900
Al1099     Al  0.89810428  0.93832876  0.66235738     1.90100
O1100       O  0.97663875  0.95806200  0.68739302    -0.73000
O1101       O  0.96637482  0.97946298  0.59729271    -0.72900
O1102       O  0.01089330  0.93488289  0.63623635    -0.78500
O1103       O  0.97328538  0.92444133  0.57872928    -0.76700
O1104       O  0.93769880  0.93420637  0.63932361    -1.12900
O1105       O  0.90667410  0.90769456  0.58613224    -0.72000
C1106       C  0.87542123  0.90738414  0.59670325     0.98700
C1107       C  0.95380840  0.96385483  0.70954510     0.95100
Al1108     Al  0.97026476  0.96754860  0.64271920     1.55600
O1109       O  0.90507140  0.89563973  0.68543729    -0.76700
C1110       C  0.97361366  0.95827071  0.57364061     0.99200
C1111       C  0.90332719  0.00895387  0.64926159     0.94100
O1112       O  0.88678187  0.98139718  0.64117876    -0.82000
O1113       O  0.82688141  0.12046389  0.74974453    -0.81400
C1114       C  0.83667345  0.26338655  0.76825738     0.97900
O1115       O  0.85578162  0.23641598  0.76309956    -0.70600
O1116       O  0.87736088  0.16914381  0.76656273    -0.74200
Al1117     Al  0.84492878  0.19726475  0.73655688     1.49000
C1118       C  0.87248648  0.15716547  0.79634965     0.93200
O1119       O  0.77510507  0.17368563  0.82203266    -0.80400
O1120       O  0.73307971  0.18773482  0.76877367    -0.73900
Al1121     Al  0.80163640  0.15031139  0.78345530     1.90100
O1122       O  0.77764549  0.22973917  0.80622457    -0.73000
O1123       O  0.76465690  0.21724967  0.71554358    -0.72900
O1124       O  0.80477801  0.26334026  0.75752961    -0.78500
O1125       O  0.82020058  0.22543963  0.70097001    -0.76700
O1126       O  0.80644603  0.18974845  0.76054605    -1.12900
O1127       O  0.83695762  0.15830081  0.70871707    -0.72000
C1128       C  0.83678584  0.12696086  0.71956881     0.98700
C1129       C  0.77151485  0.20715329  0.82830466     0.95100
Al1130     Al  0.77240271  0.22215393  0.76141378     1.55600
O1131       O  0.84216660  0.15800399  0.80914047    -0.76700
C1132       C  0.78723367  0.22463405  0.69347524     0.99200
C1133       C  0.73287412  0.15371018  0.76630194     0.94100
O1134       O  0.76115356  0.13800924  0.75950448    -0.82000
O1135       O  0.16272363  0.37441985  0.75240716    -0.81400
C1136       C  0.15025482  0.22943322  0.76593279     0.97900
O1137       O  0.13236808  0.25621008  0.75809168    -0.70600
O1138       O  0.11060553  0.32131717  0.76392611    -0.74200
Al1139     Al  0.14678856  0.29672123  0.73519108     1.49000
C1140       C  0.11240468  0.33147430  0.79473450     0.93200
O1141       O  0.20499308  0.32040657  0.82763719    -0.80400
O1142       O  0.25257998  0.30335200  0.78150106    -0.73900
Al1143     Al  0.18454650  0.34367736  0.78711060     1.90100
O1144       O  0.20053236  0.26412402  0.81308399    -0.73000
O1145       O  0.22989440  0.27349945  0.72483026    -0.72900
O1146       O  0.18326321  0.22984052  0.75987988    -0.78500
O1147       O  0.17713813  0.27057784  0.70160806    -0.76700
O1148       O  0.18188455  0.30392145  0.76336690    -1.12900
O1149       O  0.15654329  0.33752020  0.70992062    -0.72000
C1150       C  0.15430053  0.36855064  0.72177456     0.98700
C1151       C  0.20503529  0.28726984  0.83538161     0.95100
Al1152     Al  0.21427116  0.27031019  0.76907731     1.55600
O1153       O  0.14194543  0.33620937  0.80799146    -0.76700
C1154       C  0.21099391  0.26770280  0.69940495     0.99200
C1155       C  0.25539493  0.33709562  0.77840626     0.94100
O1156       O  0.22902961  0.35476316  0.76856530    -0.82000
O1157       O  0.12473303  0.57672999  0.62519497    -0.81400
C1158       C  0.98371154  0.59431966  0.63922784     0.97900
O1159       O  0.01083668  0.61268823  0.63411976    -0.70600
O1160       O  0.07858330  0.62940543  0.63915974    -0.74200
Al1161     Al  0.04994413  0.59782437  0.60866425     1.49000
C1162       C  0.08838594  0.62426649  0.66965838     0.93200
O1163       O  0.06637743  0.52779670  0.69583873    -0.80400
O1164       O  0.05285485  0.48604809  0.64563953    -0.73900
Al1165     Al  0.09245861  0.55290913  0.65792356     1.90100
O1166       O  0.01341057  0.53932916  0.67883822    -0.73000
O1167       O  0.02609177  0.51669457  0.59002096    -0.72900
O1168       O  0.98241438  0.56235371  0.62805950    -0.78500
O1169       O  0.02163435  0.57274241  0.57310943    -0.76700
O1170       O  0.05494291  0.55936215  0.63320617    -1.12900
O1171       O  0.08893102  0.58629092  0.58248451    -0.72000
C1172       C  0.11951690  0.58639572  0.59464557     0.98700
C1173       C  0.03275099  0.52658446  0.70063909     0.95100
Al1174     Al  0.02105375  0.52794837  0.63502199     1.55600
O1175       O  0.08415892  0.59404732  0.68201090    -0.76700
C1176       C  0.01884611  0.53900715  0.56749196     0.99200
C1177       C  0.08669906  0.48350757  0.64484621     0.94100
O1178       O  0.10395638  0.51022063  0.63569220    -0.82000
O1179       O  0.88975928  0.49012822  0.87769390    -0.81400
C1180       C  0.00476616  0.39789269  0.87922880     0.97900
O1181       O  0.00860821  0.43067173  0.88742602    -0.70600
O1182       O  0.97764862  0.45309539  0.83685452    -0.74200
Al1183     Al  0.97182554  0.46707399  0.87951438     1.49000
C1184       C  0.95783263  0.46166780  0.81365779     0.93200
O1185       O  0.90138496  0.39886781  0.83995693    -0.80400
O1186       O  0.90223891  0.41882721  0.93821046    -0.73900
Al1187     Al  0.89772208  0.44395197  0.85997924     1.90100
O1188       O  0.90970817  0.36865333  0.88658155    -0.73000
O1189       O  0.97029160  0.42832542  0.94513606    -0.72900
O1190       O  0.97719308  0.38183740  0.88768423    -0.78500
O1191       O  0.96884695  0.48243652  0.92372212    -0.76700
O1192       O  0.93608176  0.43777912  0.88425827    -1.12900
O1193       O  0.94286108  0.50947237  0.86678650    -0.72000
C1194       C  0.90952943  0.51498467  0.86803891     0.98700
C1195       C  0.89948030  0.37016364  0.85606823     0.95100
Al1196     Al  0.93988433  0.40194784  0.91255337     1.55600
O1197       O  0.92427609  0.46269257  0.81923217    -0.76700
C1198       C  0.97455171  0.46212570  0.94815151     0.99200
C1199       C  0.87135565  0.41779169  0.92685102     0.94100
O1200       O  0.86556064  0.42558685  0.89588637    -0.82000
O1201       O  0.32884451  0.61557456  0.50422910    -0.81400
C1202       C  0.34007532  0.75870418  0.51877120     0.97900
O1203       O  0.35893822  0.73203678  0.01230751    -0.70600
O1204       O  0.37845765  0.66558790  0.51875710    -0.74200
Al1205     Al  0.34620970  0.69209639  0.98782554     1.49000
C1206       C  0.37379199  0.65506601  0.54905991     0.93200
O1207       O  0.27578951  0.66973903  0.57449513    -0.80400
O1208       O  0.23522942  0.68472988  0.52120505    -0.73900
Al1209     Al  0.30294665  0.64645582  0.53651261     1.90100
O1210       O  0.28045420  0.72557898  0.55922171    -0.73000
O1211       O  0.26589474  0.71525777  0.96839004    -0.72900
O1212       O  0.30746621  0.75925596  0.51056295    -0.78500
O1213       O  0.32124609  0.71966366  0.95191271    -0.76700
O1214       O  0.30804034  0.68568755  0.51276732    -1.12900
O1215       O  0.33740985  0.65181137  0.96163426    -0.72000
C1216       C  0.33865063  0.62102979  0.97390794     0.98700
C1217       C  0.27159294  0.70307354  0.58057042     0.95100
Al1218     Al  0.27470553  0.71870921  0.51419257     1.55600
O1219       O  0.34335890  0.65515304  0.56177600    -0.76700
C1220       C  0.28805799  0.72262869  0.94599044     0.99200
C1221       C  0.23427706  0.65066509  0.51958091     0.94100
O1222       O  0.26215619  0.63397364  0.51281921    -0.82000
O1223       O  0.73052811  0.35857145  0.00630096    -0.81400
C1224       C  0.66316721  0.22681089  0.49803679     0.97900
O1225       O  0.69608561  0.22909945  0.50486484    -0.70600
O1226       O  0.71694779  0.26792987  0.95662703    -0.74200
Al1227     Al  0.72494057  0.27285269  0.00153702     1.49000
C1228       C  0.72073095  0.29224620  0.93570364     0.93200
O1229       O  0.64914899  0.33227066  0.96050352    -0.80400
O1230       O  0.65829539  0.33102200  0.56024244    -0.73900
Al1231     Al  0.68964207  0.34342520  0.98432047     1.90100
O1232       O  0.61685674  0.31696872  0.50402308    -0.73000
O1233       O  0.68172983  0.26460210  0.56526224    -0.72900
O1234       O  0.64284319  0.25210652  0.50555754    -0.78500
O1235       O  0.73574622  0.27491828  0.54698478    -0.76700
O1236       O  0.68912495  0.30281742  0.50624148    -1.12900
O1237       O  0.76098223  0.31053382  0.99430121    -0.72000
C1238       C  0.75927046  0.34445995  0.99782098     0.98700
C1239       C  0.61955547  0.32996909  0.97445148     0.95100
Al1240     Al  0.65266503  0.29154283  0.53196765     1.55600
O1241       O  0.71582071  0.32483055  0.94405836    -0.76700
C1242       C  0.71520983  0.26566190  0.57019121     0.99200
C1243       C  0.65485655  0.36227151  0.54938208     0.94100
O1244       O  0.66346093  0.36996469  0.51926299    -0.82000
O1245       O  0.36946438  0.41229163  0.87742615    -0.81400
C1246       C  0.51222480  0.39654136  0.88992720     0.97900
O1247       O  0.48534109  0.37879867  0.88293126    -0.70600
O1248       O  0.42005509  0.35943728  0.89022394    -0.74200
Al1249     Al  0.44538986  0.39353820  0.85977840     1.49000
C1250       C  0.41061123  0.36339969  0.92110919     0.93200
O1251       O  0.42374783  0.45891200  0.95004488    -0.80400
O1252       O  0.44038993  0.50284816  0.90180502    -0.73900
Al1253     Al  0.40043418  0.43562629  0.91051667     1.90100
O1254       O  0.47915851  0.45126073  0.93546004    -0.73000
O1255       O  0.46923691  0.47599510  0.84599470    -0.72900
O1256       O  0.51231823  0.42964593  0.88282970    -0.78500
O1257       O  0.47196761  0.42156793  0.82486884    -0.76700
O1258       O  0.43931606  0.43058054  0.88665165    -1.12900
O1259       O  0.40504524  0.40368239  0.83445429    -0.72000
C1260       C  0.37452541  0.40300751  0.84688408     0.98700
C1261       C  0.45663097  0.45879557  0.95750716     0.95100
Al1262     Al  0.47282490  0.46270420  0.89082102     1.55600
O1263       O  0.40821745  0.39412260  0.93316745    -0.76700
C1264       C  0.47562442  0.45552631  0.82155486     0.99200
C1265       C  0.40681510  0.50566382  0.89911768     0.94100
O1266       O  0.38966324  0.47897725  0.88937242    -0.82000
O1267       O  0.25764434  0.13768326  0.00595384    -0.81400
C1268       C  0.34312590  0.25686693  0.50655488     0.97900
O1269       O  0.31102906  0.25933501  0.51629366    -0.70600
O1270       O  0.28634275  0.22928134  0.96541857    -0.74200
Al1271     Al  0.27623569  0.22109637  0.00921491     1.49000
C1272       C  0.27344017  0.21064606  0.94291952     0.93200
O1273       O  0.34158692  0.15507749  0.95919635    -0.80400
O1274       O  0.33385189  0.14768386  0.55899292    -0.73900
Al1275     Al  0.29998453  0.14834626  0.98351415     1.90100
O1276       O  0.37595156  0.16371003  0.50310417    -0.73000
O1277       O  0.31976136  0.21524325  0.57282009    -0.72900
O1278       O  0.36047564  0.22935556  0.51295850    -0.78500
O1279       O  0.26498982  0.21586015  0.55430019    -0.76700
O1280       O  0.30707727  0.18582352  0.50979631    -1.12900
O1281       O  0.23436422  0.19021553  0.99891551    -0.72000
C1282       C  0.23081524  0.15622920  0.99932080     0.98700
C1283       C  0.37174966  0.15404428  0.97245470     0.95100
Al1284     Al  0.34484394  0.18907093  0.53541975     1.55600
O1285       O  0.27433869  0.17650301  0.94659832    -0.76700
C1286       C  0.28637948  0.21866280  0.57828234     0.99200
C1287       C  0.33547108  0.11774024  0.54476699     0.94100
O1288       O  0.32464355  0.11403636  0.51439792    -0.82000
O1289       O  0.62616070  0.07460917  0.86735928    -0.81400
C1290       C  0.48403783  0.09210316  0.88765364     0.97900
O1291       O  0.51120628  0.11003537  0.88133306    -0.70600
O1292       O  0.57900400  0.12798452  0.88345582    -0.74200
Al1293     Al  0.54984447  0.09524742  0.85504926     1.49000
C1294       C  0.59114884  0.12367175  0.91322824     0.93200
O1295       O  0.57380002  0.02693875  0.94243454    -0.80400
O1296       O  0.55591975  0.98460841  0.89340423    -0.73900
Al1297     Al  0.59666767  0.05148783  0.90251661     1.90100
O1298       O  0.51832790  0.03614462  0.92938439    -0.73000
O1299       O  0.52643965  0.01385989  0.83976288    -0.72900
O1300       O  0.48383357  0.05925069  0.87906663    -0.78500
O1301       O  0.52071454  0.06901613  0.82132557    -0.76700
O1302       O  0.55694372  0.05763234  0.88053377    -1.12900
O1303       O  0.58765901  0.08406310  0.82700181    -0.72000
C1304       C  0.61898294  0.08398435  0.83713741     0.98700
C1305       C  0.54071217  0.02473068  0.94965124     0.95100
Al1306     Al  0.52354823  0.02573698  0.88455031     1.55600
O1307       O  0.59096574  0.09350649  0.92669164    -0.76700
C1308       C  0.51961384  0.03517081  0.81642414     0.99200
C1309       C  0.58943367  0.98164174  0.89006716     0.94100
O1310       O  0.60620429  0.00829519  0.87994199    -0.82000
O1311       O  0.66916507  0.87880732  0.49819572    -0.81400
C1312       C  0.66267285  0.73561460  0.52474988     0.97900
O1313       O  0.64271486  0.76122292  0.01728907    -0.70600
O1314       O  0.62087323  0.82763318  0.51794620    -0.74200
Al1315     Al  0.65326505  0.79988807  0.98890688     1.49000
C1316       C  0.62568816  0.84181091  0.54682690     0.93200
O1317       O  0.72398068  0.83377780  0.57119892    -0.80400
O1318       O  0.76406868  0.81357680  0.51979038    -0.73900
Al1319     Al  0.69602421  0.85206731  0.53225376     1.90100
O1320       O  0.71992667  0.77620414  0.56183991    -0.73000
O1321       O  0.73424476  0.77764518  0.97070622    -0.72900
O1322       O  0.69494546  0.73609241  0.51555455    -0.78500
O1323       O  0.67912252  0.77101376  0.95458474    -0.76700
O1324       O  0.69161287  0.81027312  0.51214408    -1.12900
O1325       O  0.65898853  0.83829764  0.95925888    -0.72000
C1326       C  0.65836336  0.87033895  0.96888705     0.98700
C1327       C  0.72926813  0.80152381  0.58022675     0.95100
Al1328     Al  0.72573136  0.77824107  0.51615121     1.55600
O1329       O  0.65627535  0.84483353  0.55863821    -0.76700
C1330       C  0.71236309  0.77008609  0.94820904     0.99200
C1331       C  0.76471174  0.84728176  0.51544568     0.94100
O1332       O  0.73673696  0.86312270  0.50731436    -0.82000
O1333       O  0.75813163  0.64051952  0.74467964    -0.81400
C1334       C  0.84004459  0.76159866  0.76119808     0.97900
O1335       O  0.80768175  0.76199357  0.77090936    -0.70600
O1336       O  0.78428316  0.73862999  0.71702491    -0.74200
Al1337     Al  0.77362485  0.72398754  0.75886039     1.49000
C1338       C  0.77850614  0.72100641  0.69131125     0.93200
O1339       O  0.84443250  0.66812705  0.70786199    -0.80400
O1340       O  0.82871915  0.64847961  0.80554199    -0.73900
Al1341     Al  0.80182405  0.65559204  0.72772775     1.90100
O1342       O  0.87544284  0.66598257  0.75375609    -0.73000
O1343       O  0.81561074  0.71573083  0.82187020    -0.72900
O1344       O  0.85779428  0.73345552  0.76522366    -0.78500
O1345       O  0.76124197  0.71263338  0.80262502    -0.76700
O1346       O  0.80547677  0.68983153  0.75747892    -1.12900
O1347       O  0.73324275  0.69333712  0.74301031    -0.72000
C1348       C  0.73111600  0.65936676  0.73980968     0.98700
C1349       C  0.87305506  0.66105426  0.72193898     0.95100
Al1350     Al  0.84195560  0.69115942  0.78499482     1.55600
O1351       O  0.78007151  0.68676337  0.69192265    -0.76700
C1352       C  0.78210476  0.71762076  0.82670894     0.99200
C1353       C  0.83082164  0.61934472  0.78973455     0.94100
O1354       O  0.82391549  0.61842474  0.75800727    -0.82000
O1355       O  0.60400925  0.50439697  0.62536564    -0.81400
C1356       C  0.48544769  0.59103623  0.63198294     0.97900
O1357       O  0.48439379  0.55786892  0.63870091    -0.70600
O1358       O  0.51336409  0.53477936  0.58502388    -0.74200
Al1359     Al  0.52156362  0.52306742  0.62937643     1.49000
C1360       C  0.53455022  0.52701079  0.56196826     0.93200
O1361       O  0.58593152  0.59238989  0.58531772    -0.80400
O1362       O  0.59516368  0.57586089  0.68425544    -0.73900
Al1363     Al  0.59356521  0.54838983  0.60622590     1.90100
O1364       O  0.58155042  0.62383332  0.63141956    -0.73000
O1365       O  0.52624341  0.56333598  0.69551180    -0.72900
O1366       O  0.51316291  0.60802909  0.63892053    -0.78500
O1367       O  0.52621440  0.50920792  0.67403520    -0.76700
O1368       O  0.55651104  0.55383034  0.63241201    -1.12900
O1369       O  0.55184643  0.48149447  0.61776754    -0.72000
C1370       C  0.58531083  0.47747648  0.61987175     0.98700
C1371       C  0.59054869  0.62158588  0.60028698     0.95100
Al1372     Al  0.55385809  0.59020747  0.66073541     1.55600
O1373       O  0.56771404  0.52686763  0.56777031    -0.76700
C1374       C  0.52089063  0.52967170  0.69865987     0.99200
C1375       C  0.62485586  0.57618395  0.66969417     0.94100
O1376       O  0.62699894  0.56850754  0.63847104    -0.82000
C1377       C  0.69989301  0.64059617  0.72468469    -0.05000
C1378       C  0.68565859  0.60965220  0.74016694    -0.02100
C1379       C  0.66165877  0.58728232  0.72239508     0.02900
C1380       C  0.65544425  0.59270277  0.68768105    -0.05000
C1381       C  0.67417492  0.61992363  0.67133846    -0.02100
C1382       C  0.69228037  0.64589801  0.69017364     0.02900
C1383       C  0.69639272  0.60007890  0.77395143     0.37500
C1384       C  0.67657857  0.62065978  0.63482328     0.37500
C1385       C  0.70124686  0.67813055  0.67267556     0.35900
C1386       C  0.64587198  0.55683541  0.73894623     0.35900
N1387       N  0.70460806  0.70220483  0.65495382    -0.38900
N1388       N  0.63362053  0.53226846  0.75207544    -0.38900
N1389       N  0.68010644  0.62070477  0.60587583    -0.38300
N1390       N  0.70525384  0.59162477  0.80063450    -0.38300
C1391       C  0.64733098  0.70581186  0.54513269    -0.05000
C1392       C  0.63170173  0.71308041  0.57692579    -0.02100
C1393       C  0.61364181  0.68606075  0.59509659     0.02900
C1394       C  0.60928569  0.65136707  0.58109101    -0.05000
C1395       C  0.62593895  0.64430507  0.54907436    -0.02100
C1396       C  0.64545281  0.67103014  0.53205585     0.02900
C1397       C  0.63512720  0.74846751  0.59158613     0.37500
C1398       C  0.62434253  0.60937495  0.53309102     0.37500
C1399       C  0.66384267  0.66265300  0.00080875     0.35900
C1400       C  0.60023857  0.69434025  0.62848780     0.35900
N1401       N  0.67884723  0.65571904  0.97617611    -0.38900
N1402       N  0.58987107  0.70104829  0.65524452    -0.38900
N1403       N  0.62332548  0.58171701  0.51997012    -0.38300
N1404       N  0.63779982  0.77660875  0.60344171    -0.38300
C1405       C  0.72782187  0.75855576  0.91519194    -0.05000
C1406       C  0.76001793  0.77417576  0.90389586    -0.02100
C1407       C  0.77907174  0.75925931  0.87655896     0.02900
C1408       C  0.76583458  0.72915789  0.85933785    -0.05000
C1409       C  0.73299023  0.71442219  0.86982720    -0.02100
C1410       C  0.71414833  0.72905160  0.89747232     0.02900
C1411       C  0.77309893  0.80672217  0.91949662     0.37500
C1412       C  0.71817143  0.68403572  0.85215502     0.37500
C1413       C  0.68079198  0.71340913  0.90772930     0.35900
C1414       C  0.81135656  0.77627251  0.86504875     0.35900
N1415       N  0.65399372  0.70115682  0.91566177    -0.38900
N1416       N  0.83705173  0.78980604  0.85577036    -0.38900
N1417       N  0.70585595  0.66008317  0.83800979    -0.38300
N1418       N  0.78357685  0.83270154  0.93175348    -0.38300
C1419       C  0.76741335  0.74320032  0.66255425    -0.05000
C1420       C  0.73972418  0.76889352  0.66744485    -0.02100
C1421       C  0.73074296  0.79296139  0.64173330     0.02900
C1422       C  0.74840530  0.79092877  0.61080810    -0.05000
C1423       C  0.77818781  0.76781290  0.60718002    -0.02100
C1424       C  0.78790337  0.74442196  0.63322503     0.02900
C1425       C  0.71818425  0.76878635  0.69781729     0.37500
C1426       C  0.79808717  0.76639887  0.57600976     0.37500
C1427       C  0.81947875  0.72239584  0.63025895     0.35900
C1428       C  0.70164232  0.81804199  0.64612091     0.35900
N1429       N  0.84493554  0.70523995  0.62802027    -0.38900
N1430       N  0.67853449  0.83814129  0.64957943    -0.38900
N1431       N  0.81463367  0.76380634  0.55157995    -0.38300
N1432       N  0.70053827  0.76900572  0.72168939    -0.38300
C1433       C  0.60961345  0.95043445  0.90474419    -0.05000
C1434       C  0.59195718  0.91813546  0.91204152    -0.02100
C1435       C  0.60764969  0.89248870  0.93344482     0.02900
C1436       C  0.64230460  0.89744820  0.94611411    -0.05000
C1437       C  0.66136572  0.92785488  0.93656174    -0.02100
C1438       C  0.64520833  0.95451775  0.91659164     0.02900
C1439       C  0.55751341  0.91096704  0.89750508     0.37500
C1440       C  0.69791139  0.93164092  0.94728710     0.37500
C1441       C  0.66547491  0.98666025  0.91042636     0.35900
C1442       C  0.58696742  0.86198323  0.94408979     0.35900
N1443       N  0.68234402  0.01204906  0.90656031    -0.38900
N1444       N  0.57008342  0.83799112  0.95274661    -0.38900
N1445       N  0.72709416  0.93459333  0.95559206    -0.38300
N1446       N  0.53016894  0.90511701  0.88569078    -0.38300
C1447       C  0.45389005  0.10940686  0.90721599    -0.05000
C1448       C  0.42241928  0.09029105  0.91427260    -0.02100
C1449       C  0.39695842  0.10424609  0.93702460     0.02900
C1450       C  0.40119366  0.13843966  0.95183722    -0.05000
C1451       C  0.43172370  0.15819285  0.94434315    -0.02100
C1452       C  0.45761164  0.14427177  0.92187227     0.02900
C1453       C  0.41504618  0.05669989  0.89735256     0.37500
C1454       C  0.43648538  0.19311588  0.95968260     0.37500
C1455       C  0.48749106  0.16690989  0.91367048     0.35900
C1456       C  0.36690228  0.08234549  0.94636540     0.35900
N1457       N  0.51111703  0.18523568  0.90717894    -0.38900
N1458       N  0.34327069  0.06450417  0.95390893    -0.38900
N1459       N  0.44058172  0.22086406  0.97200314    -0.38300
N1460       N  0.40875671  0.03012284  0.88365815    -0.38300
C1461       C  0.50754501  0.51259647  0.73057010    -0.05000
C1462       C  0.48305261  0.48372886  0.72888231    -0.02100
C1463       C  0.47331200  0.46448578  0.75817150     0.02900
C1464       C  0.48824844  0.47310530  0.78965174    -0.05000
C1465       C  0.51214958  0.50246486  0.79142829    -0.02100
C1466       C  0.52116340  0.52228628  0.76230395     0.02900
C1467       C  0.46637319  0.47449068  0.69713727     0.37500
C1468       C  0.52794908  0.51257072  0.82335116     0.37500
C1469       C  0.54471929  0.55263010  0.76512878     0.35900
C1470       C  0.44601888  0.43741200  0.75619864     0.35900
N1471       N  0.56312296  0.57713434  0.76746276    -0.38900
N1472       N  0.42392821  0.41615945  0.75463863    -0.38900
N1473       N  0.54045126  0.52100968  0.84873405    -0.38300
N1474       N  0.45298175  0.46689356  0.67193356    -0.38300
C1475       C  0.47151635  0.47239371  0.98960526    -0.05000
C1476       C  0.50406359  0.45769293  0.50057604    -0.02100
C1477       C  0.52793749  0.47830600  0.51958976     0.02900
C1478       C  0.51809817  0.51262292  0.53088226    -0.05000
C1479       C  0.48508267  0.52697056  0.02063028    -0.02100
C1480       C  0.46135529  0.50638227  0.00140096     0.02900
C1481       C  0.51193722  0.42041195  0.49375470     0.37500
C1482       C  0.47604445  0.56366784  0.02881355     0.37500
C1483       C  0.42579053  0.51937919  0.99571202     0.35900
C1484       C  0.56285301  0.46445943  0.52697704     0.35900
N1485       N  0.39700799  0.52947641  0.99285754    -0.38900
N1486       N  0.59123196  0.45428375  0.53219698    -0.38900
N1487       N  0.46896223  0.59317819  0.03442734    -0.38300
N1488       N  0.51756251  0.39037985  0.48917403    -0.38300
C1489       C  0.36086098  0.28405165  0.98512136    -0.05000
C1490       C  0.37078095  0.27529090  0.95149134    -0.02100
C1491       C  0.38967882  0.29972304  0.93127734     0.02900
C1492       C  0.39857373  0.33369194  0.94402920    -0.05000
C1493       C  0.39145500  0.34089921  0.97897622    -0.02100
C1494       C  0.37201145  0.31661260  0.99883637     0.02900
C1495       C  0.36037113  0.24172104  0.93633525     0.37500
C1496       C  0.40469450  0.37284906  0.99554115     0.37500
C1497       C  0.36392820  0.32501526  0.53372480     0.35900
C1498       C  0.40026499  0.28916241  0.89752731     0.35900
N1499       N  0.35758429  0.33212198  0.56147833    -0.38900
N1500       N  0.40890920  0.27984437  0.87092080    -0.38900
N1501       N  0.41495477  0.39825976  0.50900282    -0.38300
N1502       N  0.35276841  0.21592994  0.92201909    -0.38300
C1503       C  0.58965457  0.34668558  0.95606289    -0.05000
C1504       C  0.59174276  0.38347813  0.94812340    -0.02100
C1505       C  0.56859137  0.39907247  0.92453147     0.02900
C1506       C  0.54157510  0.37851771  0.90934362    -0.05000
C1507       C  0.54012199  0.34110315  0.91695057    -0.02100
C1508       C  0.56393791  0.32559203  0.94025514     0.02900
C1509       C  0.61765409  0.40608912  0.96450946     0.37500
C1510       C  0.51493559  0.31765163  0.90049203     0.37500
C1511       C  0.56269493  0.28758263  0.94730942     0.35900
C1512       C  0.57314489  0.43652024  0.91625250     0.35900
N1513       N  0.56167747  0.25729555  0.95292060    -0.38900
N1514       N  0.57713112  0.46632556  0.90970097    -0.38900
N1515       N  0.49501073  0.29866125  0.88754407    -0.38300
N1516       N  0.63777547  0.42521978  0.97693685    -0.38300
C1517       C  0.63788342  0.38913128  0.57164558    -0.05000
C1518       C  0.60165686  0.38598674  0.58029871    -0.02100
C1519       C  0.58469766  0.41287946  0.59965571     0.02900
C1520       C  0.60394347  0.44317388  0.61052861    -0.05000
C1521       C  0.64154150  0.44283913  0.60621383    -0.02100
C1522       C  0.65796905  0.41679192  0.58566495     0.02900
C1523       C  0.58115747  0.35601680  0.56789678     0.37500
C1524       C  0.66392317  0.46911622  0.62257989     0.37500
C1525       C  0.69564997  0.41858879  0.57862832     0.35900
C1526       C  0.54737642  0.40938941  0.60761847     0.35900
N1527       N  0.72561428  0.42008462  0.07283672    -0.38900
N1528       N  0.51763065  0.40639666  0.61398956    -0.38900
N1529       N  0.68181990  0.49000190  0.63562766    -0.38300
N1530       N  0.56436758  0.33230129  0.55829032    -0.38300
C1531       C  0.64700265  0.19625862  0.97910875    -0.05000
C1532       C  0.66403572  0.18129803  0.95059172    -0.02100
C1533       C  0.64488562  0.15978174  0.92761764     0.02900
C1534       C  0.60857765  0.15239012  0.93303072    -0.05000
C1535       C  0.59257987  0.16437570  0.96320106    -0.02100
C1536       C  0.61126064  0.18672544  0.98566429     0.02900
C1537       C  0.70142910  0.18739163  0.94482487     0.37500
C1538       C  0.55746886  0.15190885  0.97220898     0.37500
C1539       C  0.59354812  0.19936778  0.51600379     0.35900
C1540       C  0.66373433  0.14302615  0.89989172     0.35900
N1541       N  0.57927872  0.20961025  0.54002606    -0.38900
N1542       N  0.68016333  0.12979544  0.87858102    -0.38900
N1543       N  0.52982098  0.14142417  0.97979727    -0.38300
N1544       N  0.73137164  0.19148801  0.94010409    -0.38300
C1545       C  0.35472536  0.59233509  0.95288643    -0.05000
C1546       C  0.33600271  0.56096279  0.94584709    -0.02100
C1547       C  0.35197611  0.53330864  0.92676598     0.02900
C1548       C  0.38704482  0.53726438  0.91345215    -0.05000
C1549       C  0.40464675  0.57006741  0.91878639    -0.02100
C1550       C  0.38889878  0.59707888  0.93881821     0.02900
C1551       C  0.30002522  0.55712717  0.45824550     0.37500
C1552       C  0.43943168  0.57607965  0.90431315     0.37500
C1553       C  0.40899498  0.62910147  0.94625442     0.35900
C1554       C  0.33248334  0.50014989  0.92370760     0.35900
N1555       N  0.42547529  0.65437263  0.95201866    -0.38900
N1556       N  0.31630640  0.47400537  0.92230122    -0.38900
N1557       N  0.46721414  0.58087975  0.89290580    -0.38300
N1558       N  0.27125123  0.55392332  0.46775143    -0.38300
C1559       C  0.45537325  0.60948170  0.61362901    -0.05000
C1560       C  0.42314914  0.59128292  0.60741673    -0.02100
C1561       C  0.39785250  0.60550686  0.58495191     0.02900
C1562       C  0.40276259  0.63940846  0.56993136    -0.05000
C1563       C  0.43334184  0.65892873  0.57776005    -0.02100
C1564       C  0.45988113  0.64394242  0.59868703     0.02900
C1565       C  0.41525809  0.55779786  0.62409550     0.37500
C1566       C  0.43704646  0.69497592  0.56495263     0.37500
C1567       C  0.49209493  0.66420670  0.60347856     0.35900
C1568       C  0.36707896  0.58418912  0.57652382     0.35900
N1569       N  0.51770809  0.68064267  0.60685649    -0.38900
N1570       N  0.34288511  0.56663674  0.57006162    -0.38900
N1571       N  0.43980507  0.72384533  0.55501724    -0.38300
N1572       N  0.40854808  0.53118017  0.63731798    -0.38300
C1573       C  0.89214663  0.54659445  0.85141674    -0.05000
C1574       C  0.85943768  0.56023347  0.86347892    -0.02100
C1575       C  0.83816635  0.58266849  0.84290099     0.02900
C1576       C  0.84739075  0.58885033  0.80869308    -0.05000
C1577       C  0.87925245  0.57367116  0.79656504    -0.02100
C1578       C  0.90307262  0.55659768  0.81876552     0.02900
C1579       C  0.84879812  0.55298621  0.89787929     0.37500
C1580       C  0.88724831  0.57416614  0.76098553     0.37500
C1581       C  0.93980469  0.55282372  0.80896522     0.35900
C1582       C  0.80660460  0.59923575  0.85696754     0.35900
N1583       N  0.96947659  0.55178742  0.80174416    -0.38900
N1584       N  0.78162072  0.61273088  0.86829004    -0.38900
N1585       N  0.89308509  0.57258071  0.73243609    -0.38300
N1586       N  0.84053933  0.54738410  0.92543433    -0.38300
C1587       C  0.78867105  0.36818957  0.98627237    -0.05000
C1588       C  0.82406028  0.35753770  0.99043898    -0.02100
C1589       C  0.85123070  0.37453748  0.97213204     0.02900
C1590       C  0.84328216  0.40309614  0.94952854    -0.05000
C1591       C  0.80845823  0.41633103  0.94839456    -0.02100
C1592       C  0.78135152  0.39943302  0.96691639     0.02900
C1593       C  0.83245079  0.32810206  0.51283251     0.37500
C1594       C  0.80041930  0.44754596  0.92815795     0.37500
C1595       C  0.74598739  0.41442043  0.96483209     0.35900
C1596       C  0.88684851  0.36035039  0.97546672     0.35900
N1597       N  0.71824203  0.42743250  0.96276353    -0.38900
N1598       N  0.91491849  0.34839445  0.97882736    -0.38900
N1599       N  0.79392988  0.47238224  0.91202263    -0.38300
N1600       N  0.83910467  0.30465907  0.53066302    -0.38300
C1601       C  0.95510922  0.61014675  0.66051742    -0.05000
C1602       C  0.96343779  0.62573877  0.69217962    -0.02100
C1603       C  0.93717723  0.64301889  0.71182125     0.02900
C1604       C  0.90176226  0.64419716  0.70065453    -0.05000
C1605       C  0.89329572  0.62682335  0.66937087    -0.02100
C1606       C  0.91996395  0.61069029  0.64938554     0.02900
C1607       C  0.99879638  0.62284778  0.70591766     0.37500
C1608       C  0.85706006  0.62340153  0.65770304     0.37500
C1609       C  0.91129201  0.59519436  0.61683999     0.35900
C1610       C  0.94692378  0.65897249  0.74386913     0.35900
N1611       N  0.90437490  0.58301598  0.59084716    -0.38900
N1612       N  0.95482623  0.67138392  0.76950569    -0.38900
N1613       N  0.82840916  0.62019896  0.64791532    -0.38300
N1614       N  0.02622731  0.62108861  0.71862924    -0.38300
C1615       C  0.00520970  0.52356504  0.53555706    -0.05000
C1616       C  0.02583893  0.52450001  0.50600418    -0.02100
C1617       C  0.01679821  0.50281193  0.97809806     0.02900
C1618       C  0.98719600  0.47963297  0.97957948    -0.05000
C1619       C  0.96639075  0.47893820  0.50906616    -0.02100
C1620       C  0.97535080  0.50075454  0.53687116     0.02900
C1621       C  0.05721662  0.54661748  0.50482505     0.37500
C1622       C  0.93497486  0.45689656  0.51045602     0.37500
C1623       C  0.95366690  0.49962642  0.56710612     0.35900
C1624       C  0.03836226  0.50403135  0.94780720     0.35900
N1625       N  0.93639227  0.49855808  0.59117178    -0.38900
N1626       N  0.05540267  0.50503728  0.92358809    -0.38900
N1627       N  0.90975060  0.43953450  0.51191838    -0.38300
N1628       N  0.08232620  0.56419695  0.50386126    -0.38300
C1629       C  0.01389234  0.50740872  0.72853948    -0.05000
C1630       C  0.03298811  0.49045843  0.75410951    -0.02100
C1631       C  0.01499397  0.47415514  0.78099404     0.02900
C1632       C  0.97676432  0.47287214  0.78208170    -0.05000
C1633       C  0.95787508  0.48604377  0.75447701    -0.02100
C1634       C  0.97585970  0.50357264  0.72820724     0.02900
C1635       C  0.07150038  0.48924262  0.75298726     0.37500
C1636       C  0.91954123  0.48277675  0.75338668     0.37500
C1637       C  0.95386256  0.51660910  0.70084394     0.35900
C1638       C  0.03741980  0.46056406  0.80782885     0.35900
N1639       N  0.93550306  0.52627498  0.67941737    -0.38900
N1640       N  0.05649268  0.45090814  0.82868771    -0.38900
N1641       N  0.88902591  0.48039434  0.75245254    -0.38300
N1642       N  0.10210023  0.48773938  0.75229778    -0.38300
C1643       C  0.20297822  0.63013291  0.53233312    -0.05000
C1644       C  0.16926306  0.64624834  0.53300586    -0.02100
C1645       C  0.14235646  0.63239645  0.55380582     0.02900
C1646       C  0.14819910  0.60082999  0.57291415    -0.05000
C1647       C  0.18032901  0.58231512  0.56915482    -0.02100
C1648       C  0.20758207  0.59658619  0.54894802     0.02900
C1649       C  0.16180498  0.67647552  0.51133034     0.37500
C1650       C  0.18507468  0.54801711  0.58554317     0.37500
C1651       C  0.24016742  0.57616514  0.54615688     0.35900
C1652       C  0.10914008  0.65187644  0.55613626     0.35900
N1653       N  0.26569542  0.55905145  0.54441372    -0.38900
N1654       N  0.08288254  0.66786877  0.55743792    -0.38900
N1655       N  0.18881199  0.52059020  0.59840872    -0.38300
N1656       N  0.15577434  0.70023407  0.99372063    -0.38300
C1657       C  0.34530787  0.38831113  0.82594545    -0.05000
C1658       C  0.34962350  0.35512689  0.80897089    -0.02100
C1659       C  0.32081155  0.33902450  0.79223455     0.02900
C1660       C  0.28754346  0.35644882  0.79104784    -0.05000
C1661       C  0.28446561  0.39138925  0.80543413    -0.02100
C1662       C  0.31313760  0.40689697  0.82286362     0.02900
C1663       C  0.38371095  0.33709960  0.80859269     0.37500
C1664       C  0.25155094  0.41144587  0.80419702     0.37500
C1665       C  0.30995409  0.44280510  0.83651692     0.35900
C1666       C  0.32570147  0.30433747  0.77632535     0.35900
N1667       N  0.30733630  0.47165842  0.84681525    -0.38900
N1668       N  0.32968367  0.27659027  0.76386448    -0.38900
N1669       N  0.22563855  0.42804430  0.80369401    -0.38300
N1670       N  0.41089253  0.32276133  0.80743778    -0.38300
C1671       C  0.23001483  0.25543097  0.66792280    -0.05000
C1672       C  0.21742328  0.22614923  0.64895527    -0.02100
C1673       C  0.23727825  0.21251262  0.62133905     0.02900
C1674       C  0.27028138  0.22783317  0.61201923    -0.05000
C1675       C  0.28392525  0.25559084  0.63221162    -0.02100
C1676       C  0.26389922  0.26958657  0.65960858     0.02900
C1677       C  0.18484189  0.20869441  0.65886971     0.37500
C1678       C  0.31850200  0.27014318  0.62468304     0.37500
C1679       C  0.27829066  0.29916925  0.67889905     0.35900
C1680       C  0.22404179  0.18169601  0.60301985     0.35900
N1681       N  0.28991904  0.32261368  0.69435203    -0.38900
N1682       N  0.21355279  0.15711451  0.58841744    -0.38900
N1683       N  0.34634875  0.28140615  0.61908103    -0.38300
N1684       N  0.15897385  0.19468595  0.66700012    -0.38300
C1685       C  0.21533919  0.27305276  0.86879325    -0.05000
C1686       C  0.24225332  0.28910612  0.88741581    -0.02100
C1687       C  0.25967664  0.26946157  0.91263329     0.02900
C1688       C  0.25440757  0.23139255  0.91588112    -0.05000
C1689       C  0.22586921  0.21629146  0.89801921    -0.02100
C1690       C  0.20444209  0.23821554  0.87758239     0.02900
C1691       C  0.25165764  0.32614805  0.88136835     0.37500
C1692       C  0.21752850  0.17875890  0.90114754     0.37500
C1693       C  0.16910587  0.22689800  0.86870827     0.35900
C1694       C  0.27997627  0.29052965  0.93641804     0.35900
N1695       N  0.14005345  0.21927391  0.86327668    -0.38900
N1696       N  0.29395596  0.30929171  0.95533987    -0.38900
N1697       N  0.21126778  0.14862208  0.90307030    -0.38300
N1698       N  0.25923438  0.35568351  0.87700869    -0.38300
C1699       C  0.08105561  0.34131382  0.81637201    -0.05000
C1700       C  0.04949352  0.35466197  0.80235278    -0.02100
C1701       C  0.02412081  0.37195150  0.82310965     0.02900
C1702       C  0.03092048  0.37813685  0.85786031    -0.05000
C1703       C  0.06021615  0.36119552  0.87255449    -0.02100
C1704       C  0.08461773  0.34207622  0.85220205     0.02900
C1705       C  0.04263292  0.35058395  0.76665132     0.37500
C1706       C  0.06422183  0.36194790  0.90889958     0.37500
C1707       C  0.11268613  0.32222251  0.86868030     0.35900
C1708       C  0.99035278  0.38131167  0.80837114     0.35900
N1709       N  0.13472938  0.30643146  0.88234551    -0.38900
N1710       N  0.96365104  0.38668995  0.79509377    -0.38900
N1711       N  0.06710221  0.36222591  0.93791084    -0.38300
N1712       N  0.03648644  0.34721760  0.73829443    -0.38300
C1713       C  0.13898966  0.39720629  0.69978928    -0.05000
C1714       C  0.10843659  0.39043195  0.67987193    -0.02100
C1715       C  0.09198786  0.41811580  0.66128458     0.02900
C1716       C  0.10646284  0.45276816  0.66093397    -0.05000
C1717       C  0.13898650  0.45855261  0.67870386    -0.02100
C1718       C  0.15462741  0.43109453  0.69813129     0.02900
C1719       C  0.09355089  0.35484267  0.67806130     0.37500
C1720       C  0.15694643  0.49272633  0.67837027     0.37500
C1721       C  0.18806192  0.43731673  0.71512394     0.35900
C1722       C  0.06042022  0.41052843  0.64184620     0.35900
N1723       N  0.21493448  0.44248713  0.72813331    -0.38900
N1724       N  0.03525895  0.40444059  0.62632654    -0.38900
N1725       N  0.17234169  0.51939145  0.67889589    -0.38300
N1726       N  0.08172413  0.32646721  0.67587745    -0.38300
C1727       C  0.64640141  0.09820632  0.81372517    -0.05000
C1728       C  0.67906645  0.08076446  0.81001182    -0.02100
C1729       C  0.70706276  0.09756875  0.79278512     0.02900
C1730       C  0.70181446  0.13147533  0.77694457    -0.05000
C1731       C  0.66718040  0.14540261  0.77547683    -0.02100
C1732       C  0.63995646  0.12989322  0.79497029     0.02900
C1733       C  0.68354871  0.04487230  0.82301297     0.37500
C1734       C  0.65993248  0.17699352  0.75550933     0.37500
C1735       C  0.60632714  0.14859049  0.79757784     0.35900
C1736       C  0.74128269  0.07983634  0.79336699     0.35900
N1737       N  0.57981170  0.16407065  0.79957610    -0.38900
N1738       N  0.76813732  0.06489033  0.79456763    -0.38900
N1739       N  0.65422080  0.20225297  0.73969474    -0.38300
N1740       N  0.68717156  0.01588979  0.83241275    -0.38300
C1741       C  0.73224957  0.25535752  0.60266266    -0.05000
C1742       C  0.75678012  0.27896749  0.61796381    -0.02100
C1743       C  0.77700385  0.26810695  0.64613386     0.02900
C1744       C  0.77294026  0.23353831  0.65948783    -0.05000
C1745       C  0.74889340  0.20968450  0.64379435    -0.02100
C1746       C  0.72910540  0.22035440  0.61527499     0.02900
C1747       C  0.76080390  0.31488294  0.60492492     0.37500
C1748       C  0.74438936  0.17398082  0.65723304     0.37500
C1749       C  0.70683934  0.19476854  0.59792608     0.35900
C1750       C  0.80063021  0.29317461  0.66244655     0.35900
N1751       N  0.68934173  0.17430381  0.58383714    -0.38900
N1752       N  0.81942576  0.31319042  0.67553741    -0.38900
N1753       N  0.74076781  0.14565485  0.66823867    -0.38300
N1754       N  0.76390034  0.34342487  0.59428530    -0.38300
C1755       C  0.73291448  0.27947224  0.90258212    -0.05000
C1756       C  0.76954821  0.27371002  0.89823189    -0.02100
C1757       C  0.78214520  0.24542864  0.87778364     0.02900
C1758       C  0.75837849  0.22331997  0.86002259    -0.05000
C1759       C  0.72170581  0.23040421  0.86321899    -0.02100
C1760       C  0.70910893  0.25809682  0.88435656     0.02900
C1761       C  0.79462307  0.29655879  0.91516335     0.37500
C1762       C  0.69628780  0.20994465  0.84445986     0.37500
C1763       C  0.67126937  0.26368106  0.88884241     0.35900
C1764       C  0.81993961  0.23967084  0.87413929     0.35900
N1765       N  0.64118406  0.26814640  0.89259620    -0.38900
N1766       N  0.85010653  0.23515516  0.87148028    -0.38900
N1767       N  0.67405383  0.19482396  0.83069358    -0.38300
N1768       N  0.81571224  0.31446440  0.92763852    -0.38300
C1769       C  0.88302543  0.33945556  0.83836639    -0.05000
C1770       C  0.90441773  0.31589664  0.81967556    -0.02100
C1771       C  0.88962574  0.29477451  0.79381308     0.02900
C1772       C  0.85216614  0.29293558  0.78943337    -0.05000
C1773       C  0.83049719  0.31514210  0.81001989    -0.02100
C1774       C  0.84598689  0.33897147  0.83349775     0.02900
C1775       C  0.94153626  0.31201637  0.82815043     0.37500
C1776       C  0.79224366  0.31342591  0.80788318     0.37500
C1777       C  0.82353554  0.36270081  0.85319094     0.35900
C1778       C  0.91365247  0.27568624  0.77137212     0.35900
N1779       N  0.80517287  0.38131544  0.86876296    -0.38900
N1780       N  0.93295282  0.26053137  0.75362382    -0.38900
N1781       N  0.76167153  0.31225373  0.80658054    -0.38300
N1782       N  0.97087323  0.30755378  0.83536381    -0.38300
C1783       C  0.84788355  0.89481692  0.57271200    -0.05000
C1784       C  0.85481872  0.86460486  0.55180459    -0.02100
C1785       C  0.82919730  0.85244632  0.52879928     0.02900
C1786       C  0.79552540  0.86848247  0.52791968    -0.05000
C1787       C  0.79016308  0.90122981  0.54575384     0.02700
C1788       C  0.81617302  0.91402076  0.56825235     0.02900
C1789       C  0.88773190  0.84470273  0.55460284     0.37500
C1790       C  0.75825994  0.92236174  0.54126718     0.37500
C1791       C  0.81068914  0.94760435  0.58592216     0.35900
C1792       C  0.83777551  0.82397117  0.50519032     0.35900
N1793       N  0.80610784  0.97466140  0.59947302    -0.38900
N1794       N  0.84472252  0.80150485  0.48613842    -0.38900
N1795       N  0.73323289  0.93990763  0.53783441    -0.38300
N1796       N  0.91385766  0.82858439  0.55650978    -0.38300
C1797       C  0.85700954  0.79138428  0.74104988    -0.05000
C1798       C  0.89457889  0.79307648  0.73766767    -0.02100
C1799       C  0.91063302  0.81555472  0.71338764     0.02900
C1800       C  0.88988519  0.83557206  0.69081268    -0.05000
C1801       C  0.85259417  0.83401332  0.69404274    -0.02100
C1802       C  0.83646095  0.81388072  0.72006272     0.02900
C1803       C  0.91732962  0.77279694  0.76003150     0.37500
C1804       C  0.83041140  0.85301971  0.67026337     0.37500
C1805       C  0.79886472  0.81816993  0.72602383     0.35900
C1806       C  0.94878683  0.81857131  0.71225561     0.35900
N1807       N  0.76903504  0.82269994  0.73120865    -0.38900
N1808       N  0.97929893  0.82051884  0.71206605    -0.38900
N1809       N  0.81214676  0.86737486  0.65122705    -0.38300
N1810       N  0.93569012  0.75664680  0.77766446    -0.38300
C1811       C  0.88268217  0.04133288  0.66022211    -0.05000
C1812       C  0.89880555  0.07529090  0.66073098    -0.02100
C1813       C  0.88327372  0.10363487  0.67925638     0.02900
C1814       C  0.85097903  0.09851300  0.69699056    -0.05000
C1815       C  0.83263156  0.06634323  0.69288343    -0.02100
C1816       C  0.84833741  0.03766411  0.67508702     0.02900
C1817       C  0.93221275  0.08083177  0.64343356     0.37500
C1818       C  0.79705560  0.06301571  0.70640473     0.37500
C1819       C  0.82936979  0.00405343  0.67466360     0.35900
C1820       C  0.90194115  0.13736458  0.68146087     0.35900
N1821       N  0.81356451  0.97764669  0.67511895    -0.38900
N1822       N  0.91704099  0.16415210  0.68291556    -0.38900
N1823       N  0.76847846  0.06039170  0.71659501    -0.38300
N1824       N  0.95893168  0.08522032  0.62978740    -0.38300
C1825       C  0.14748719  0.70141848  0.73034958    -0.05000
C1826       C  0.14202541  0.66684937  0.74248610    -0.02100
C1827       C  0.12217092  0.64200902  0.72338369     0.02900
C1828       C  0.10744736  0.65157885  0.69117383    -0.05000
C1829       C  0.11333143  0.68657590  0.67938976    -0.02100
C1830       C  0.13384219  0.71076968  0.69839138     0.02900
C1831       C  0.15583375  0.65726905  0.77536112     0.37500
C1832       C  0.09690585  0.69893220  0.64855213     0.37500
C1833       C  0.14046448  0.74581997  0.68467771     0.35900
C1834       C  0.11659171  0.60709007  0.73826539     0.35900
N1835       N  0.14464429  0.77351947  0.67268854    -0.38900
N1836       N  0.11219495  0.57945778  0.75051538    -0.38900
N1837       N  0.08353503  0.70948904  0.62435444    -0.38300
N1838       N  0.16683243  0.64962245  0.80154742    -0.38300
C1839       C  0.22990340  0.75443981  0.85724084    -0.05000
C1840       C  0.22981210  0.77622918  0.88627098    -0.02100
C1841       C  0.25079405  0.76696242  0.91445536     0.02900
C1842       C  0.27305442  0.73630724  0.91368736    -0.05000
C1843       C  0.27447966  0.71547029  0.88405930    -0.02100
C1844       C  0.25283063  0.72426483  0.85613045     0.02900
C1845       C  0.20967497  0.80932026  0.88639160     0.37500
C1846       C  0.29805919  0.68483806  0.88240707     0.37500
C1847       C  0.25432045  0.70225864  0.82597238     0.35900
C1848       C  0.25011260  0.78961432  0.94419764     0.35900
N1849       N  0.25554400  0.68475140  0.80188980    -0.38900
N1850       N  0.24963474  0.80775700  0.96787565    -0.38900
N1851       N  0.31716376  0.66061817  0.88095332    -0.38300
N1852       N  0.19394846  0.83592348  0.88626344    -0.38300
C1853       C  0.24082772  0.77139766  0.66114677    -0.05000
C1854       C  0.22295050  0.77261879  0.63041230    -0.02100
C1855       C  0.22876015  0.74555700  0.60623011     0.02900
C1856       C  0.25507280  0.71876057  0.61111927    -0.05000
C1857       C  0.27313770  0.71752451  0.64184806    -0.02100
C1858       C  0.26710519  0.74440645  0.66623380     0.02900
C1859       C  0.19842962  0.80164890  0.62383567     0.37500
C1860       C  0.29768640  0.68846518  0.64845616     0.37500
C1861       C  0.28834602  0.74417964  0.69664991     0.35900
C1862       C  0.20670806  0.74482958  0.57646545     0.35900
N1863       N  0.30577631  0.74336084  0.72056709    -0.38900
N1864       N  0.18837589  0.74465284  0.55319114    -0.38900
N1865       N  0.31719602  0.66524677  0.65378405    -0.38300
N1866       N  0.17911098  0.82507340  0.61873291    -0.38300
C1867       C  0.09090061  0.85159578  0.70855325    -0.05000
C1868       C  0.09133314  0.88901569  0.70309282    -0.02100
C1869       C  0.06607749  0.90559035  0.68190737     0.02900
C1870       C  0.04163722  0.88473963  0.66335127    -0.05000
C1871       C  0.04342651  0.84679349  0.66685789    -0.02100
C1872       C  0.06632557  0.83078776  0.69071267     0.02900
C1873       C  0.11798507  0.91103766  0.71910062     0.37500
C1874       C  0.02236969  0.82353278  0.64554641     0.37500
C1875       C  0.06426815  0.79275028  0.69704487     0.35900
C1876       C  0.06510063  0.94430527  0.68026271     0.35900
N1877       N  0.06173689  0.76250606  0.70234413    -0.38900
N1878       N  0.06434508  0.97519575  0.67930779    -0.38900
N1879       N  0.00559863  0.80482869  0.62871927    -0.38300
N1880       N  0.13896656  0.92953270  0.73110987    -0.38300
C1881       C  0.09958251  0.15040309  0.83012718    -0.05000
C1882       C  0.07899657  0.17630842  0.81379681    -0.02100
C1883       C  0.09491157  0.20062159  0.79120610     0.02900
C1884       C  0.13230163  0.19957208  0.78483184    -0.05000
C1885       C  0.15250626  0.17230346  0.80049184    -0.02100
C1886       C  0.13621100  0.14791690  0.82264076     0.02900
C1887       C  0.04100789  0.17700926  0.81924836     0.37500
C1888       C  0.19051796  0.16976441  0.79542173     0.37500
C1889       C  0.15782589  0.12036218  0.83806680     0.35900
C1890       C  0.07199432  0.22646000  0.77479257     0.35900
N1891       N  0.17591344  0.09866554  0.84966471    -0.38900
N1892       N  0.05350223  0.24703463  0.76198622    -0.38900
N1893       N  0.22086313  0.16771147  0.79176492    -0.38300
N1894       N  0.01068283  0.17754891  0.82329758    -0.38300
C1895       C  0.14432956  0.10399472  0.94556959    -0.05000
C1896       C  0.14158174  0.14055027  0.95486002    -0.02100
C1897       C  0.16816397  0.15719292  0.97458914     0.02900
C1898       C  0.19800728  0.13748382  0.98587568    -0.05000
C1899       C  0.19847574  0.09979087  0.97923285    -0.02100
C1900       C  0.17248976  0.08367987  0.95844966     0.02900
C1901       C  0.11168817  0.16169197  0.94340680     0.37500
C1902       C  0.22522150  0.07672810  0.49396561     0.37500
C1903       C  0.17424100  0.04575339  0.95082767     0.35900
C1904       C  0.16437342  0.19476035  0.98305639     0.35900
N1905       N  0.17551974  0.01551848  0.94471587    -0.38900
N1906       N  0.16114289  0.22472053  0.98977467    -0.38900
N1907       N  0.24635529  0.05814034  0.50573727    -0.38300
N1908       N  0.08796767  0.17896285  0.93467995    -0.38300
C1909       C  0.00763847  0.01713900  0.98517168    -0.05000
C1910       C  0.97261872  0.02046243  0.99725683    -0.02100
C1911       C  0.96107676  0.99995905  0.52516960     0.02900
C1912       C  0.98406025  0.97492801  0.54079866    -0.05000
C1913       C  0.01896543  0.97134404  0.52844763    -0.02100
C1914       C  0.03070536  0.99234821  0.50097359     0.02900
C1915       C  0.94789245  0.04350664  0.97970022     0.37500
C1916       C  0.04321966  0.94688384  0.54481910     0.37500
C1917       C  0.06684396  0.98866836  0.48895070     0.35900
C1918       C  0.92513401  0.00425320  0.53753575     0.35900
N1919       N  0.09564580  0.98589193  0.47926887    -0.38900
N1920       N  0.89648269  0.00771221  0.54744263    -0.38900
N1921       N  0.06244264  0.92731263  0.55801236    -0.38300
N1922       N  0.92831024  0.06170533  0.96529845    -0.38300
C1923       C  0.96886179  0.97655118  0.74191936    -0.05000
C1924       C  0.99831731  0.95750202  0.75469017    -0.02100
C1925       C  0.02424133  0.97491743  0.77421719     0.02900
C1926       C  0.01986075  0.01088442  0.78369377    -0.05000
C1927       C  0.99045625  0.03003224  0.77096824    -0.02100
C1928       C  0.96480006  0.01276952  0.75093554     0.02900
C1929       C  0.00210677  0.91971728  0.74722375     0.37500
C1930       C  0.98708907  0.06795466  0.77824168     0.37500
C1931       C  0.93411502  0.03241043  0.73988756     0.35900
C1932       C  0.05628441  0.95619771  0.78306288     0.35900
N1933       N  0.90933307  0.04847604  0.73217257    -0.38900
N1934       N  0.08238075  0.94121107  0.78853857    -0.38900
N1935       N  0.98474129  0.09825827  0.78375852    -0.38300
N1936       N  0.00504490  0.88951365  0.74159126    -0.38300
C1937       C  0.94649062  0.10301377  0.86303707    -0.05000
C1938       C  0.94281445  0.14086581  0.86330045    -0.02100
C1939       C  0.92151910  0.15851030  0.83918485     0.02900
C1940       C  0.90063859  0.13883794  0.81647792    -0.05000
C1941       C  0.90069643  0.10099734  0.81914256    -0.02100
C1942       C  0.92416599  0.08319392  0.84141037     0.02900
C1943       C  0.95960347  0.16190538  0.88954000     0.37500
C1944       C  0.87571897  0.07992997  0.79991144     0.37500
C1945       C  0.92517392  0.04445773  0.84162315     0.35900
C1946       C  0.92074101  0.19714736  0.83827515     0.35900
N1947       N  0.92571104  0.01354172  0.84163423    -0.38900
N1948       N  0.92078617  0.22801769  0.83782514    -0.38900
N1949       N  0.85580599  0.06216516  0.78550034    -0.38300
N1950       N  0.97269229  0.17859223  0.91068126    -0.38300
C1951       C  0.14195421  0.89423794  0.82367300    -0.05000
C1952       C  0.10913671  0.88768690  0.84009189    -0.02100
C1953       C  0.09285002  0.91439420  0.86028094     0.02900
C1954       C  0.10854430  0.94840162  0.86370273    -0.05000
C1955       C  0.14318719  0.95343991  0.84981187    -0.02100
C1956       C  0.15925799  0.92673596  0.82953641     0.02900
C1957       C  0.09028404  0.85458167  0.83408093     0.37500
C1958       C  0.16280836  0.98615617  0.85531278     0.37500
C1959       C  0.19386340  0.93266605  0.81462786     0.35900
C1960       C  0.05957765  0.90684622  0.87708346     0.35900
N1961       N  0.22142047  0.93729249  0.80268000    -0.38900
N1962       N  0.03311632  0.90071304  0.89056399    -0.38900
N1963       N  0.17903878  0.01193677  0.85948645    -0.38300
N1964       N  0.07475435  0.82847137  0.82932667    -0.38300
C1965       C  0.39889353  0.83544351  0.57751797    -0.05000
C1966       C  0.39947128  0.83635191  0.54169310    -0.02100
C1967       C  0.37698786  0.81396255  0.52261511     0.02900
C1968       C  0.35703658  0.78742842  0.53873406    -0.05000
C1969       C  0.36185328  0.78227284  0.57368934    -0.02100
C1970       C  0.38034428  0.80742993  0.59330875     0.02900
C1971       C  0.42596216  0.85727455  0.52433045     0.37500
C1972       C  0.35257792  0.74860478  0.58892361     0.37500
C1973       C  0.38079340  0.80311281  0.62955871     0.35900
C1974       C  0.37629815  0.81636951  0.98614910     0.35900
N1975       N  0.38071669  0.79861570  0.65834967    -0.38900
N1976       N  0.37566346  0.81799214  0.95706051    -0.38900
N1977       N  0.34772992  0.72130886  0.60147117    -0.38300
N1978       N  0.44795717  0.87287138  0.51050452    -0.38300
C1979       C  0.50861282  0.01821585  0.78438382    -0.05000
C1980       C  0.47362103  0.02240615  0.77282929    -0.02100
C1981       C  0.46025809  0.99916085  0.74786508     0.02900
C1982       C  0.48207196  0.97217246  0.73363553    -0.05000
C1983       C  0.51701295  0.96788641  0.74519003    -0.02100
C1984       C  0.53018891  0.99066035  0.77056589     0.02900
C1985       C  0.45103349  0.04984646  0.78742021     0.37500
C1986       C  0.53982002  0.94092336  0.73001274     0.37500
C1987       C  0.56619083  0.98578863  0.78249792     0.35900
C1988       C  0.42372271  0.00247880  0.73704420     0.35900
N1989       N  0.59482757  0.98185116  0.79211959    -0.38900
N1990       N  0.39455352  0.00474400  0.72845341    -0.38900
N1991       N  0.55782998  0.91937386  0.71776886    -0.38300
N1992       N  0.43315392  0.07188713  0.79903062    -0.38300
C1993       C  0.48595171  0.98186065  0.53587930    -0.05000
C1994       C  0.47398842  0.97478582  0.00317989    -0.02100
C1995       C  0.49465344  0.98486764  0.97530200     0.02900
C1996       C  0.52568756  0.00612155  0.97945539    -0.05000
C1997       C  0.53760405  0.01373056  0.51201969    -0.02100
C1998       C  0.51837879  0.00126019  0.54013374     0.02900
C1999       C  0.44037280  0.95701014  0.99790613     0.37500
C2000       C  0.56900471  0.03544440  0.51661495     0.37500
C2001       C  0.53198261  0.01009885  0.57328536     0.35900
C2002       C  0.48389259  0.97178336  0.94244955     0.35900
N2003       N  0.54353915  0.01764900  0.59932180    -0.38900
N2004       N  0.47424294  0.96037966  0.91694750    -0.38900
N2005       N  0.59401775  0.05275884  0.52023380    -0.38300
N2006       N  0.41333714  0.94341611  0.99341893    -0.38300
C2007       C  0.39220585  0.04226444  0.60763871    -0.05000
C2008       C  0.35504898  0.04679398  0.61096213    -0.02100
C2009       C  0.33618174  0.06989698  0.58911194     0.02900
C2010       C  0.35415856  0.08893870  0.56372738    -0.05000
C2011       C  0.39176260  0.08745740  0.56324731    -0.02100
C2012       C  0.41050240  0.06528931  0.58574668     0.02900
C2013       C  0.33675135  0.03013557  0.63883799     0.37500
C2014       C  0.41250349  0.10925998  0.54063399     0.37500
C2015       C  0.44878398  0.06796977  0.58735833     0.35900
C2016       C  0.29838358  0.07507592  0.59348771     0.35900
N2017       N  0.47915498  0.07129346  0.58892458    -0.38900
N2018       N  0.26826952  0.07948494  0.59706110    -0.38900
N2019       N  0.43192639  0.12524574  0.02399603    -0.38300
N2020       N  0.32248375  0.01759732  0.66169255    -0.38300
C2021       C  0.34585386  0.89057539  0.68878085    -0.05000
C2022       C  0.31071742  0.90262887  0.68577896    -0.02100
C2023       C  0.28415001  0.88956503  0.70763322     0.02900
C2024       C  0.29157874  0.86128981  0.73070528    -0.05000
C2025       C  0.32667292  0.84896920  0.73338649    -0.02100
C2026       C  0.35369270  0.86388070  0.71332351     0.02900
C2027       C  0.30152142  0.92826288  0.65987228     0.37500
C2028       C  0.33530362  0.82112959  0.75741790     0.37500
C2029       C  0.38937046  0.85007531  0.71763065     0.35900
C2030       C  0.24936235  0.90588836  0.70551845     0.35900
N2031       N  0.41749007  0.83845984  0.72160820    -0.38900
N2032       N  0.22225371  0.92017841  0.70311717    -0.38900
N2033       N  0.34226315  0.79889488  0.77647076    -0.38300
N2034       N  0.29373733  0.94805223  0.63882184    -0.38300
C2035       C  0.59619824  0.85684495  0.56731170    -0.05000
C2036       C  0.60085399  0.88988998  0.58431419    -0.02100
C2037       C  0.57555534  0.90234865  0.60776061     0.02900
C2038       C  0.54359762  0.88351158  0.61267730    -0.05000
C2039       C  0.53876832  0.85048923  0.59478043    -0.02100
C2040       C  0.56506613  0.83735802  0.57255183     0.02900
C2041       C  0.63115064  0.91225859  0.57676179     0.37500
C2042       C  0.50702770  0.82913744  0.59862213     0.37500
C2043       C  0.56032161  0.80326015  0.55551380     0.35900
C2044       C  0.58337938  0.93420751  0.62731580     0.35900
N2045       N  0.55654622  0.77613009  0.54192106    -0.38900
N2046       N  0.58997391  0.95942525  0.64302096    -0.38900
N2047       N  0.48212155  0.81149029  0.60132782    -0.38300
N2048       N  0.65498866  0.93048322  0.57079981    -0.38300
loop_ 
_geom_bond_atom_site_label_1 
_geom_bond_atom_site_label_2 
_geom_bond_distance 
_geom_bond_site_symmetry_2 
_ccdc_geom_bond_type 
O1           C16   1.257   1_565  A
O1           Al9   1.878       .  S
C2           O12   1.251       .  A
C2            O3   1.276       .  A
C2         C1014   1.506       .  S
O3           Al5   1.955       .  S
O4            C6   1.242       .  A
O4           Al5   1.827       .  S
Al5          O13   1.846       .  S
Al5          O15   1.968   1_565  S
Al5          O14   1.748       .  S
C6           O19   1.285       .  A
C6          C969   1.496       .  S
O7           C17   1.256       .  A
O7           Al9   1.867       .  S
O8           C21   1.253       .  A
O8          Al18   1.852       .  S
Al9          O22   2.007       .  S
Al9          O19   2.021       .  S
Al9          O14   1.758       .  S
O10          C17   1.277       .  A
O10         Al18   1.976       .  S
O11          C20   1.276       .  A
O11         Al18   1.977       .  S
O12         Al18   1.850       .  S
O13          C20   1.251       .  A
O14         Al18   1.760       .  S
O15          C16   1.275       .  A
C16         C983   1.503       .  S
C17         C941   1.501       .  S
C20         C958   1.477       .  S
C21          O22   1.284       .  A
C21         C997   1.501       .  S
O23          C38   1.251   1_545  A
O23         Al31   1.875       .  S
C24          O34   1.253   1_655  A
C24          O25   1.275       .  A
C24         C913   1.511       .  S
O25         Al27   1.976   1_655  S
O26          C28   1.248       .  A
O26         Al27   1.829       .  S
Al27         O35   1.860       .  S
Al27         O37   1.990   1_545  S
Al27         O36   1.769       .  S
C28          O41   1.282       .  A
C28         C902   1.483       .  S
O29          C39   1.250       .  A
O29         Al31   1.850       .  S
O30          C43   1.256       .  A
O30         Al40   1.874       .  S
Al31         O44   1.985       .  S
Al31         O41   2.014       .  S
Al31         O36   1.756       .  S
O32          C39   1.278       .  A
O32         Al40   1.991       .  S
O33          C42   1.285       .  A
O33         Al40   2.005       .  S
O34         Al40   1.865       .  S
O35          C42   1.256       .  A
O36         Al40   1.762       .  S
O37          C38   1.277       .  A
C38         C930   1.510       .  S
C39         C857   1.486       .  S
C42         C885   1.498       .  S
C43          O44   1.277       .  A
C43         C871   1.499       .  S
O45          C60   1.252       .  A
O45         Al53   1.875       .  S
C46          O56   1.254       .  A
C46          O47   1.275       .  A
C46         C801   1.488       .  S
O47         Al49   1.965       .  S
O48          C50   1.242       .  A
O48         Al49   1.807       .  S
Al49         O57   1.852       .  S
Al49         O59   1.978       .  S
Al49         O58   1.763       .  S
C50          O63   1.283       .  A
C50         C829   1.480       .  S
O51          C61   1.253       .  A
O51         Al53   1.861       .  S
O52          C65   1.256       .  A
O52         Al62   1.858       .  S
Al53         O66   1.987       .  S
Al53         O63   2.027       .  S
Al53         O58   1.757       .  S
O54          C61   1.277       .  A
O54         Al62   1.999       .  S
O55          C64   1.284       .  A
O55         Al62   2.008       .  S
O56         Al62   1.862       .  S
O57          C64   1.254       .  A
O58         Al62   1.766       .  S
O59          C60   1.274       .  A
C60        C1000   1.503       .  S
C61         C843   1.495       .  S
C64         C815   1.494       .  S
C65          O66   1.281       .  A
C65         C927   1.492       .  S
O67          C82   1.278       .  A
O67         Al75   1.981       .  S
C68          O78   1.277       .  A
C68          O69   1.255   1_455  A
C68         C846   1.514       .  S
O69         Al71   1.865       .  S
O70          C72   1.280       .  A
O70         Al71   2.008       .  S
Al71         O79   2.007       .  S
Al71         O81   1.853       .  S
Al71         O80   1.757       .  S
C72          O85   1.253       .  A
C72         C776   1.499       .  S
O73          C83   1.282       .  A
O73         Al75   2.013       .  S
O74          C87   1.275       .  A
O74         Al84   1.977   1_545  S
Al75         O88   1.870       .  S
Al75         O85   1.864       .  S
Al75         O80   1.757       .  S
O76          C83   1.248       .  A
O76         Al84   1.827       .  S
O77          C86   1.255       .  A
O77         Al84   1.866       .  S
O78         Al84   1.974   1_455  S
O79          C86   1.284       .  A
O80         Al84   1.762       .  S
O81          C82   1.252       .  A
C82         C759   1.489       .  S
C83         C899   1.484       .  S
C86         C888   1.501       .  S
C87          O88   1.250   1_545  A
C87         C787   1.501       .  S
O89         C104   1.279       .  A
O89         Al97   1.980       .  S
C90         O100   1.279       .  A
C90          O91   1.254       .  A
C90         C748   1.508       .  S
O91         Al93   1.849       .  S
O92          C94   1.280       .  A
O92         Al93   2.009       .  S
Al93        O101   1.999       .  S
Al93        O103   1.852       .  S
Al93        O102   1.761       .  S
C94         O107   1.252       .  A
C94         C916   1.498       .  S
O95         C105   1.283       .  A
O95         Al97   2.022       .  S
O96         C109   1.277       .  A
O96        Al106   1.993       .  S
Al97        O110   1.862       .  S
Al97        O107   1.865       .  S
Al97        O102   1.748       .  S
O98         C105   1.243       .  A
O98        Al106   1.812       .  S
O99         C108   1.254       .  A
O99        Al106   1.854       .  S
O100       Al106   1.979       .  S
O101        C108   1.282       .  A
O102       Al106   1.764       .  S
O103        C104   1.252       .  A
C104        C790   1.486       .  S
C105        C734   1.478       .  S
C108        C720   1.493       .  S
C109        O110   1.245       .  A
C109        C706   1.503       .  S
O111        C126   1.276       .  A
O111       Al119   1.979       .  S
C112        O122   1.270       .  A
C112        O113   1.248       .  A
C112        C860   1.512       .  S
O113       Al115   1.856       .  S
O114        C116   1.281       .  A
O114       Al115   1.997       .  S
Al115       O123   2.005       .  S
Al115       O125   1.869       .  S
Al115       O124   1.758       .  S
C116        O129   1.248       .  A
C116        C675   1.505       .  S
O117        C127   1.280       .  A
O117       Al119   1.990       .  S
O118        C131   1.275       .  A
O118       Al128   1.971       .  S
Al119       O132   1.882       .  S
Al119       O129   1.832       .  S
Al119       O124   1.761       .  S
O120        C127   1.248       .  A
O120       Al128   1.838       .  S
O121        C130   1.257       .  A
O121       Al128   1.857       .  S
O122       Al128   1.953       .  S
O123        C130   1.286       .  A
O124       Al128   1.767       .  S
O125        C126   1.254       .  A
C126        C689   1.501       .  S
C127        C661   1.484       .  S
C130        C647   1.509       .  S
C131        O132   1.257       .  A
C131        C636   1.504       .  S
O133        C148   1.283       .  A
O133       Al141   1.996       .  S
C134        O144   1.276       .  A
C134        O135   1.254   1_655  A
C134        C577   1.489       .  S
O135       Al137   1.869       .  S
O136        C138   1.282       .  A
O136       Al137   2.010       .  S
Al137       O145   2.006       .  S
Al137       O147   1.849       .  S
Al137       O146   1.752       .  S
C138        O151   1.246       .  A
C138        C804   1.515       .  S
O139        C149   1.285       .  A
O139       Al141   2.034       .  S
O140        C153   1.282       .  A
O140       Al150   2.018       .  S
Al141       O154   1.871       .  S
Al141       O151   1.834       .  S
Al141       O146   1.743       .  S
O142        C149   1.231       .  A
O142       Al150   1.811       .  S
O143        C152   1.257       .  A
O143       Al150   1.843       .  S
O144       Al150   1.963   1_655  S
O145        C152   1.286       .  A
O146       Al150   1.744       .  S
O147        C148   1.254       .  A
C148        C622   1.489       .  S
C149        C605   1.503       .  S
C152        C591   1.486       .  S
C153        O154   1.251       .  A
C153        C692   1.514       .  S
O155        C170   1.257       .  A
O155       Al163   1.886       .  S
C156        O166   1.251   1_455  A
C156        O157   1.277       .  A
C156        C678   1.492       .  S
O157       Al159   1.969   1_455  S
O158        C160   1.231       .  A
O158       Al159   1.783       .  S
Al159       O167   1.848       .  S
Al159       O169   1.992       .  S
Al159       O168   1.754       .  S
C160        O173   1.287       .  A
C160        C608   1.504       .  S
O161        C171   1.256       .  A
O161       Al163   1.867       .  S
O162        C175   1.253       .  A
O162       Al172   1.854       .  S
Al163       O176   1.998       .  S
Al163       O173   2.031       .  S
Al163       O168   1.758       .  S
O164        C171   1.274       .  A
O164       Al172   1.981       .  S
O165        C174   1.281       .  A
O165       Al172   1.994       .  S
O166       Al172   1.872       .  S
O167        C174   1.254       .  A
O168       Al172   1.760       .  S
O169        C170   1.276       .  A
C170        C549   1.507       .  S
C171        C745   1.484       .  S
C174        C594   1.488       .  S
C175        O176   1.284       .  A
C175        C566   1.498       .  S
O177       C1216   1.277   1_554  A
O177       Al185   1.976       .  S
C178        O188   1.275       .  A
C178       O1203   1.249       .  A
C178        C944   1.482       .  S
O179       C1202   1.249       .  A
O179       Al181   1.846       .  S
O180        C182   1.280       .  A
O180      Al1205   1.996   1_554  S
Al181       O189   2.000       .  S
Al181       O191   1.860       .  S
Al181      O1204   1.996       .  S
Al181      O1214   1.765       .  S
C182        O195   1.255       .  A
C182        C538   1.494       .  S
O183        C193   1.279       .  A
O183       Al185   2.015       .  S
O184        C197   1.277       .  A
O184       Al194   1.985       .  S
Al185       O198   1.868       .  S
Al185       O195   1.858       .  S
Al185       O190   1.760       .  S
O186        C193   1.244       .  A
O186       Al194   1.819       .  S
O187        C196   1.253       .  A
O187      Al1218   1.854       .  S
O188       Al194   1.969       .  S
O189        C196   1.281       .  A
O190       Al194   1.761       .  S
O190      Al1205   1.765   1_554  S
O191        C192   1.254       .  A
C192       O1201   1.277       .  A
C192        C521   1.484       .  S
C193        C832   1.481       .  S
Al194      O1211   1.854   1_554  S
C196        C818   1.495       .  S
C197        O198   1.250       .  A
C197        C619   1.502       .  S
O199        C214   1.250       .  A
O199       Al207   1.866       .  S
C200        O210   1.251   1_556  A
C200        O201   1.277   1_556  A
C200       C1531   1.499       .  S
O201      Al1227   1.977       .  S
O202        C204   1.244       .  A
O202       Al203   1.818       .  S
Al203       O213   1.987       .  S
Al203      O1225   1.977       .  S
Al203      O1235   1.853       .  S
Al203      O1236   1.762       .  S
C204        O217   1.275       .  A
C204        C731   1.469       .  S
O205        C215   1.250       .  A
O205       Al207   1.849       .  S
O206        C219   1.255       .  A
O206       Al216   1.865       .  S
Al207       O217   1.998       .  S
Al207      O1244   1.965       .  S
Al207      O1236   1.756       .  S
O208       C1239   1.277   1_554  A
O208       Al216   1.993       .  S
O209        C218   1.281       .  A
O209       Al216   1.995       .  S
O210       Al216   1.846       .  S
O211        C218   1.254       .  A
O211      Al1227   1.853       .  S
O212       Al216   1.767       .  S
O212      Al1227   1.762       .  S
O212      Al1231   1.756   1_554  S
O213        C214   1.278       .  A
C214        C563   1.498       .  S
C215       O1232   1.277       .  A
C215        C479   1.484       .  S
C218        C717   1.494       .  S
C219        O220   1.273       .  A
C219        C493   1.479       .  S
O220      Al1231   1.965   1_554  S
O221        C236   1.274       .  A
O221       Al229   1.966       .  S
C222        O232   1.272       .  A
C222        O223   1.248       .  A
C222        C482   1.511       .  S
O223       Al225   1.853       .  S
O224        C226   1.284       .  A
O224       Al225   2.007       .  S
Al225       O233   2.012       .  S
Al225       O235   1.867       .  S
Al225       O234   1.760       .  S
C226        O239   1.247       .  A
C226        C468   1.512       .  S
O227        C237   1.278       .  A
O227       Al229   2.000       .  S
O228        C241   1.277       .  A
O228       Al238   1.981       .  S
Al229       O242   1.874       .  S
Al229       O239   1.822       .  S
Al229       O234   1.755       .  S
O230        C237   1.250       .  A
O230       Al238   1.841       .  S
O231        C240   1.256       .  A
O231       Al238   1.856       .  S
O232       Al238   1.958       .  S
O233        C240   1.287       .  A
O234       Al238   1.758       .  S
O235        C236   1.254       .  A
C236        C633   1.490       .  S
C237        C451   1.483       .  S
C240        C440   1.508       .  S
C241        O242   1.254       .  A
C241        C524   1.505       .  S
O243        C258   1.255       .  A
O243       Al251   1.875       .  S
C244        O254   1.246       .  A
C244        O245   1.275       .  A
C244       C1489   1.491   1_554  S
O245      Al1271   1.967       .  S
O246        C248   1.234       .  A
O246       Al247   1.807       .  S
Al247       O257   2.006       .  S
Al247      O1269   1.967       .  S
Al247      O1279   1.850       .  S
Al247      O1280   1.757       .  S
C248        O261   1.288       .  A
C248        C664   1.510       .  S
O249        C259   1.257       .  A
O249       Al251   1.862       .  S
O250        C263   1.254       .  A
O250       Al260   1.862       .  S
Al251       O261   2.052       .  S
Al251      O1288   2.007       .  S
Al251      O1280   1.766       .  S
O252       C1283   1.277   1_554  A
O252       Al260   1.975       .  S
O253        C262   1.285       .  A
O253       Al260   2.008       .  S
O254       Al260   1.854       .  S
O255        C262   1.255       .  A
O255      Al1271   1.850       .  S
O256       Al260   1.759       .  S
O256      Al1271   1.757       .  S
O256      Al1275   1.766   1_554  S
O257        C258   1.280       .  A
C258        C874   1.524       .  S
C259       O1276   1.277       .  A
C259        C426   1.495       .  S
C262        C650   1.507       .  S
C263        O264   1.281       .  A
C263        C986   1.494       .  S
O264      Al1275   2.007   1_554  S
O265        C280   1.281       .  A
O265       Al273   1.988       .  S
C266        O276   1.275       .  A
C266        O267   1.255       .  A
C266        C423   1.518       .  S
O267       Al269   1.872       .  S
O268        C270   1.280       .  A
O268       Al269   1.999       .  S
Al269       O277   1.994       .  S
Al269       O279   1.855       .  S
Al269       O278   1.758       .  S
C270        O283   1.252       .  A
C270        C510   1.486       .  S
O271        C281   1.285       .  A
O271       Al273   2.029       .  S
O272        C285   1.277       .  A
O272       Al282   1.995   1_565  S
Al273       O286   1.878       .  S
Al273       O283   1.850       .  S
Al273       O278   1.753       .  S
O274        C281   1.245       .  A
O274       Al282   1.831       .  S
O275        C284   1.252       .  A
O275       Al282   1.834       .  S
O276       Al282   1.965       .  S
O277        C284   1.282       .  A
O278       Al282   1.749       .  S
O279        C280   1.251       .  A
C280        C703   1.492       .  S
C281        C972   1.489       .  S
C284        C955   1.481       .  S
C285        O286   1.252   1_565  A
C285        C409   1.512       .  S
O287       C1326   1.274       .  A
O287       Al295   1.968   1_556  S
C288        O298   1.272       .  A
C288       O1313   1.254       .  A
C288        C367   1.500       .  S
O289       C1312   1.254       .  A
O289       Al291   1.882       .  S
O290        C292   1.275       .  A
O290      Al1315   1.969   1_554  S
Al291       O299   1.987       .  S
Al291       O301   1.876       .  S
Al291      O1314   1.969       .  S
Al291      O1324   1.764       .  S
C292        O305   1.254       .  A
C292       C1011   1.485       .  S
O293        C303   1.276       .  A
O293       Al295   1.997       .  S
O294        C307   1.275       .  A
O294       Al304   1.971       .  S
Al295       O308   1.876       .  S
Al295       O305   1.851       .  S
Al295       O300   1.762       .  S
O296        C303   1.247       .  A
O296       Al304   1.829       .  S
O297        C306   1.251       .  A
O297      Al1328   1.832       .  S
O298       Al304   1.965       .  S
O299        C306   1.281       .  A
O300       Al304   1.765       .  S
O300      Al1315   1.764   1_554  S
O301        C302   1.257       .  A
C302       O1311   1.274       .  A
C302        C412   1.490       .  S
C303        C398   1.470       .  S
Al304      O1321   1.832   1_554  S
C306        C381   1.495       .  S
C307        O308   1.253       .  A
C307        C762   1.496       .  S
O309        C324   1.254       .  A
O309       Al317   1.872       .  S
C310        O320   1.257       .  A
C310        O311   1.281       .  A
C310        C773   1.519       .  S
O311       Al313   1.981       .  S
O312        C314   1.233       .  A
O312       Al313   1.797       .  S
Al313       O321   1.850       .  S
Al313       O323   2.014       .  S
Al313       O322   1.752       .  S
C314        O327   1.283       .  A
C314        C395   1.476       .  S
O315        C325   1.247       .  A
O315       Al317   1.854       .  S
O316        C329   1.258       .  A
O316       Al326   1.867       .  S
Al317       O330   2.022       .  S
Al317       O327   2.018       .  S
Al317       O322   1.745       .  S
O318        C325   1.279       .  A
O318       Al326   1.999       .  S
O319        C328   1.282       .  A
O319       Al326   1.988       .  S
O320       Al326   1.871       .  S
O321        C328   1.255       .  A
O322       Al326   1.762       .  S
O323        C324   1.280       .  A
C324        C353   1.501       .  S
C325        C580   1.508       .  S
C328        C384   1.494       .  S
C329        O330   1.288       .  A
C329        C552   1.505       .  S
O331        C346   1.252       .  A
O331       Al339   1.858       .  S
C332        O342   1.258       .  A
C332        O333   1.272       .  A
C332        C535   1.517       .  S
O333       Al335   1.945       .  S
O334        C336   1.247       .  A
O334       Al335   1.844       .  S
Al335       O343   1.859       .  S
Al335       O345   1.979       .  S
Al335       O344   1.760       .  S
C336        O349   1.275       .  A
C336        C454   1.484       .  S
O337        C347   1.255       .  A
O337       Al339   1.870       .  S
O338        C351   1.261       .  A
O338       Al348   1.898       .  S
Al339       O352   1.952       .  S
Al339       O349   1.985       .  S
Al339       O344   1.752       .  S
O340        C347   1.284       .  A
O340       Al348   2.014       .  S
O341        C350   1.284       .  A
O341       Al348   2.006       .  S
O342       Al348   1.887       .  S
O343        C350   1.255       .  A
O344       Al348   1.764       .  S
O345        C346   1.276       .  A
C346        C496   1.506       .  S
C347        C370   1.529       .  S
C350        C437   1.509       .  S
C351        O352   1.274       .  A
C351        C356   1.495       .  S
C353        C354   1.421       .  A
C353        C358   1.416       .  A
C354        C355   1.424       .  A
C354        C359   1.449       .  S
C355        C356   1.414       .  A
C355        C362   1.449       .  S
C356        C357   1.404       .  A
C357        C358   1.405       .  A
C357        C360   1.453       .  S
C358        C361   1.437       .  S
C359        N366   1.157       .  T
C360        N365   1.157       .  T
C361        N363   1.153       .  T
C362        N364   1.157       .  T
C367        C368   1.417       .  A
C367        C372   1.402       .  A
C368        C369   1.421       .  A
C368        C373   1.451       .  S
C369        C370   1.421       .  A
C369        C376   1.450       .  S
C370        C371   1.440       .  A
C371        C372   1.419       .  A
C371        C374   1.452       .  S
C372       C1399   1.452       .  S
C373        N380   1.157       .  T
C374        N379   1.158       .  T
C375       C1396   1.452       .  S
C375        N377   1.157       .  T
C376        N378   1.157       .  T
C381        C382   1.425       .  A
C381        C386   1.408       .  A
C382        C383   1.412       .  A
C382        C387   1.454       .  S
C383        C384   1.410       .  A
C383        C390   1.453       .  S
C384        C385   1.423       .  A
C385        C386   1.414       .  A
C385        C388   1.449       .  S
C386        C389   1.451       .  S
C387        N394   1.157       .  T
C388        N393   1.156       .  T
C389        N391   1.157       .  T
C390        N392   1.158       .  T
C395        C396   1.430       .  A
C395        C400   1.398       .  A
C396        C397   1.406       .  A
C396        C401   1.453       .  S
C397        C398   1.398       .  A
C397        C404   1.452       .  S
C398        C399   1.423       .  A
C399        C400   1.407       .  A
C399        C402   1.447       .  S
C400        C403   1.451       .  S
C401        N408   1.158       .  T
C402        N407   1.156       .  T
C403        N405   1.157       .  T
C404        N406   1.157       .  T
C409        C410   1.415       .  A
C409        C414   1.435       .  A
C410        C411   1.414       .  A
C410        C415   1.451       .  S
C411        C412   1.417       .  A
C411        C418   1.451       .  S
C412        C413   1.403       .  A
C413        C414   1.415       .  A
C413        C416   1.453       .  S
C414        C417   1.451       .  S
C415        N422   1.157       .  T
C416        N421   1.157       .  T
C417        N419   1.158   1_565  T
C418        N420   1.157       .  T
C423        C424   1.419       .  A
C423        C428   1.434       .  A
C424        C425   1.415       .  A
C424        C429   1.451       .  S
C425        C426   1.416       .  A
C425        C432   1.452       .  S
C426        C427   1.405       .  A
C427        C428   1.418       .  A
C427        C430   1.452       .  S
C428        C431   1.452       .  S
C429        N436   1.158       .  T
C430        N435   1.157       .  T
C431        N433   1.158       .  T
C432        N434   1.157       .  T
C437        C438   1.428       .  A
C437        C442   1.409       .  A
C438        C439   1.420       .  A
C438        C443   1.452       .  S
C439        C440   1.409       .  A
C439        C446   1.451       .  S
C440        C441   1.428       .  A
C441        C442   1.419       .  A
C441        C444   1.452       .  S
C442        C445   1.451       .  S
C443        N450   1.157       .  T
C444        N449   1.157       .  T
C445        N447   1.157       .  T
C446        N448   1.157       .  T
C451        C456   1.405       .  A
C451       C1476   1.416       .  A
C452        C453   1.408       .  A
C452       C1475   1.416   1_554  A
C452        C457   1.450   1_554  S
C453        C454   1.407       .  A
C453        C460   1.446       .  S
C454       C1479   1.418       .  A
C455        C456   1.409       .  A
C455       C1478   1.418       .  A
C455        C458   1.449       .  S
C456        C459   1.446       .  S
C457        N464   1.157       .  T
C458        N463   1.156       .  T
C459        N461   1.156       .  T
C460        N462   1.156       .  T
C465       C1268   1.491       .  S
C465        C466   1.422       .  A
C465        C470   1.400       .  A
C466        C467   1.415       .  A
C466        C471   1.447       .  S
C467        C468   1.409       .  A
C467        C474   1.450       .  S
C468        C469   1.437       .  A
C469        C470   1.414       .  A
C469        C472   1.454       .  S
C470       C1497   1.451       .  S
C471        N478   1.156       .  T
C472       N1501   1.158       .  T
C473       C1494   1.451   1_554  S
C473        N475   1.157       .  T
C474        N476   1.157       .  T
N477       C1496   1.158   1_554  T
C479        C480   1.417       .  A
C479        C484   1.403       .  A
C480        C481   1.410       .  A
C480        C485   1.451       .  S
C481        C482   1.416       .  A
C481        C488   1.452       .  S
C482        C483   1.436       .  A
C483        C484   1.417       .  A
C483        C486   1.452       .  S
C484        C487   1.453       .  S
C485        N492   1.157       .  T
C486        N491   1.158       .  T
C487        N489   1.157       .  T
C488        N490   1.157       .  T
C493        C494   1.416       .  A
C493        C498   1.401       .  A
C494        C495   1.414       .  A
C494        C499   1.451       .  S
C495        C496   1.416       .  A
C495        C502   1.451       .  S
C496        C497   1.431       .  A
C497        C498   1.409       .  A
C497        C500   1.453       .  S
C498        C501   1.452       .  S
C499        N506   1.157       .  T
C500        N505   1.158       .  T
C501       N1527   1.157       .  T
C502        N504   1.158       .  T
N503       C1525   1.157       .  T
C507       C1224   1.499       .  S
C507        C508   1.413       .  A
C507        C512   1.422       .  A
C508        C509   1.417       .  A
C508        C513   1.450       .  S
C509        C510   1.417       .  A
C509        C516   1.448       .  S
C510        C511   1.411       .  A
C511        C512   1.413       .  A
C511        C514   1.453       .  S
C512       C1539   1.452       .  S
C513        N520   1.157       .  T
C514        N519   1.157       .  T
C515       C1536   1.452   1_554  S
C515        N517   1.157       .  T
C516        N518   1.156       .  T
C521        C522   1.401       .  A
C521        C526   1.418       .  A
C522        C523   1.412       .  A
C522       C1551   1.452       .  S
C523        C524   1.434       .  A
C523        C530   1.451       .  S
C524        C525   1.415       .  A
C525        C526   1.412       .  A
C525        C528   1.452       .  S
C526        C529   1.452       .  S
C527       C1546   1.452       .  S
C527        N534   1.157       .  T
C528        N533   1.157       .  T
C529        N531   1.157       .  T
C530        N532   1.158       .  T
C535        C536   1.420       .  A
C535        C540   1.433       .  A
C536        C537   1.413       .  A
C536        C541   1.452       .  S
C537        C538   1.418       .  A
C537        C544   1.452       .  S
C538        C539   1.405       .  A
C539        C540   1.419       .  A
C539        C542   1.452       .  S
C540        C543   1.450       .  S
C541        N548   1.157       .  T
C542        N547   1.157       .  T
C543        N545   1.157       .  T
C544        N546   1.157       .  T
C549        C550   1.416       .  A
C549        C554   1.412       .  A
C550        C551   1.422       .  A
C550        C555   1.450       .  S
C551        C552   1.422       .  A
C551        C558   1.451       .  S
C552        C553   1.411       .  A
C553        C554   1.414       .  A
C553        C556   1.444       .  S
C554        C557   1.447       .  S
C555        N562   1.157       .  T
C556        N561   1.156       .  T
C557        N559   1.157       .  T
C558        N560   1.157       .  T
C563        C564   1.404       .  A
C563        C568   1.429       .  A
C564        C565   1.412       .  A
C564       C1593   1.453       .  S
C565        C566   1.430       .  A
C565        C572   1.451       .  S
C566        C567   1.405       .  A
C567        C568   1.413       .  A
C567        C570   1.453       .  S
C568        C571   1.450       .  S
C569       C1588   1.453   1_554  S
C569        N576   1.157       .  T
C570        N575   1.157       .  T
C571        N573   1.157       .  T
C572        N574   1.158       .  T
C577        C578   1.420       .  A
C577        C582   1.401       .  A
C578        C579   1.413       .  A
C578        C583   1.448       .  S
C579        C580   1.411       .  A
C579        C586   1.452       .  S
C580        C581   1.437       .  A
C581        C582   1.413       .  A
C581        C584   1.453       .  S
C582        C585   1.453       .  S
C583        N590   1.156   1_655  T
C584        N589   1.158       .  T
C585        N587   1.157       .  T
C586        N588   1.157       .  T
C591        C592   1.408       .  A
C591        C596   1.419   1_455  A
C592       C1617   1.414   1_554  A
C592        C597   1.450       .  S
C593        C594   1.420   1_455  A
C593       C1616   1.414       .  A
C593        C600   1.452       .  S
C594       C1619   1.409       .  A
C595        C596   1.413       .  A
C595       C1618   1.409   1_554  A
C595        C598   1.450       .  S
C596        C599   1.453       .  S
C597        N604   1.158       .  T
C598        N603   1.158       .  T
C599        N601   1.157       .  T
C600        N602   1.157       .  T
C605        C606   1.400       .  A
C605        C610   1.445   1_455  A
C606        C607   1.407       .  A
C606        C611   1.456       .  S
C607        C608   1.446   1_455  A
C607        C614   1.455       .  S
C608        C609   1.400       .  A
C609        C610   1.410       .  A
C609        C612   1.455       .  S
C610        C613   1.454       .  S
C611        N618   1.158       .  T
C612        N617   1.158       .  T
C613        N615   1.157       .  T
C614        N616   1.157       .  T
C619        C620   1.407       .  A
C619        C624   1.431       .  A
C620        C621   1.411       .  A
C620        C625   1.452       .  S
C621        C622   1.424       .  A
C621        C628   1.451       .  S
C622        C623   1.402       .  A
C623        C624   1.412       .  A
C623        C626   1.453       .  S
C624        C627   1.450       .  S
C625       N1656   1.157   1_554  T
C626        N631   1.157       .  T
C627        N629   1.157       .  T
C628        N630   1.157       .  T
N632       C1649   1.157       .  T
C633        C634   1.419       .  A
C633        C638   1.404       .  A
C634        C635   1.413       .  A
C634        C639   1.451       .  S
C635        C636   1.414       .  A
C635        C642   1.452       .  S
C636        C637   1.429       .  A
C637        C638   1.413       .  A
C637        C640   1.451       .  S
C638        C641   1.451       .  S
C639        N646   1.157       .  T
C640        N645   1.157       .  T
C641        N643   1.157       .  T
C642        N644   1.157       .  T
C647        C648   1.412       .  A
C647        C652   1.427       .  A
C648        C649   1.419       .  A
C648        C653   1.451       .  S
C649        C650   1.424       .  A
C649        C656   1.452       .  S
C650        C651   1.410       .  A
C651        C652   1.420       .  A
C651        C654   1.449       .  S
C652        C655   1.452       .  S
C653        N660   1.157       .  T
C654        N659   1.157       .  T
C655        N657   1.158       .  T
C656        N658   1.157       .  T
C661        C662   1.396       .  A
C661        C666   1.415       .  A
C662        C663   1.408       .  A
C662        C667   1.454       .  S
C663        C664   1.446       .  A
C663        C670   1.451       .  S
C664        C665   1.411       .  A
C665        C666   1.411       .  A
C665        C668   1.447       .  S
C666        C669   1.447       .  S
C667        N674   1.157       .  T
C668        N673   1.157       .  T
C669        N671   1.156       .  T
C670        N672   1.156       .  T
C675        C676   1.408       .  A
C675        C680   1.430       .  A
C676        C677   1.415       .  A
C676        C681   1.449       .  S
C677        C678   1.422       .  A
C677        C684   1.447   1_455  S
C678        C679   1.403       .  A
C679        C680   1.414       .  A
C679        C682   1.452       .  S
C680        C683   1.451       .  S
C681        N688   1.157       .  T
C682        N687   1.157       .  T
C683        N685   1.157       .  T
C684        N686   1.157       .  T
C689        C690   1.424       .  A
C689        C694   1.404       .  A
C690        C691   1.417       .  A
C690        C695   1.450       .  S
C691        C692   1.410       .  A
C691        C698   1.451       .  S
C692        C693   1.435       .  A
C693        C694   1.416       .  A
C693        C696   1.451       .  S
C694        C697   1.453       .  S
C695        N702   1.157       .  T
C696        N701   1.158       .  T
C697        N699   1.157       .  T
C698        N700   1.157       .  T
C703        C704   1.401       .  A
C703        C708   1.424       .  A
C704        C705   1.411       .  A
C704        C709   1.451       .  S
C705        C706   1.433       .  A
C705        C712   1.451       .  S
C706        C707   1.408       .  A
C707        C708   1.414       .  A
C707        C710   1.452       .  S
C708        C711   1.451       .  S
C709        N716   1.157       .  T
C710        N715   1.157       .  T
C711        N713   1.157       .  T
C712        N714   1.158       .  T
C717        C718   1.420       .  A
C717        C722   1.411       .  A
C718        C719   1.416       .  A
C718        C723   1.452       .  S
C719        C720   1.410       .  A
C719        C726   1.450       .  S
C720        C721   1.420       .  A
C721        C722   1.417       .  A
C721        C724   1.452       .  S
C722        C725   1.451       .  S
C723        N730   1.157       .  T
C724        N729   1.158       .  T
C725        N727   1.157       .  T
C726        N728   1.157       .  T
C731        C732   1.410       .  A
C731        C736   1.406       .  A
C732        C733   1.411       .  A
C732        C737   1.445       .  S
C733        C734   1.412       .  A
C733        C740   1.450       .  S
C734        C735   1.415       .  A
C735        C736   1.411       .  A
C735        C738   1.438       .  S
C736        C739   1.454       .  S
C737        N744   1.155       .  T
C738        N743   1.153       .  T
C739        N741   1.157       .  T
C740        N742   1.156       .  T
C745        C746   1.402       .  A
C745        C750   1.413       .  A
C746        C747   1.411       .  A
C746        C751   1.450       .  S
C747        C748   1.428       .  A
C747        C754   1.453       .  S
C748        C749   1.419       .  A
C749        C750   1.417       .  A
C749        C752   1.450       .  S
C750        C753   1.450       .  S
C751        N758   1.157       .  T
C752        N757   1.158       .  T
C753        N755   1.157       .  T
C754        N756   1.158       .  T
C759        C760   1.423       .  A
C759        C764   1.406       .  A
C760        C761   1.408       .  A
C760        C765   1.451       .  S
C761        C762   1.405       .  A
C761        C768   1.451       .  S
C762        C763   1.426       .  A
C763        C764   1.414       .  A
C763        C766   1.451       .  S
C764        C767   1.451       .  S
C765        N772   1.157       .  T
C766        N771   1.158       .  T
C767        N769   1.157       .  T
C768        N770   1.157   1_554  T
C773        C774   1.427       .  A
C773        C778   1.418       .  A
C774        C775   1.420       .  A
C774        C779   1.452       .  S
C775        C776   1.409       .  A
C775        C782   1.447       .  S
C776        C777   1.416       .  A
C777        C778   1.420       .  A
C777        C780   1.451       .  S
C778        C781   1.448       .  S
C779        N786   1.157       .  T
C780        N785   1.157       .  T
C781        N783   1.157       .  T
C782        N784   1.156       .  T
C787        C788   1.412       .  A
C787        C792   1.432       .  A
C788        C789   1.413       .  A
C788        C793   1.452       .  S
C789        C790   1.422       .  A
C789        C796   1.452       .  S
C790        C791   1.402       .  A
C791        C792   1.410       .  A
C791        C794   1.452       .  S
C792        C795   1.451       .  S
C793        N800   1.157       .  T
C794        N799   1.157       .  T
C795        N797   1.158   1_545  T
C796        N798   1.157       .  T
C801        C802   1.399       .  A
C801        C806   1.416       .  A
C802        C803   1.416       .  A
C802        C807   1.453       .  S
C803        C804   1.442       .  A
C803        C810   1.453       .  S
C804        C805   1.412       .  A
C805        C806   1.412       .  A
C805        C808   1.451       .  S
C806        C809   1.446       .  S
C807        N814   1.157       .  T
C808        N813   1.157       .  T
C809        N811   1.155       .  T
C810        N812   1.158       .  T
C815        C816   1.409       .  A
C815        C820   1.421       .  A
C816        C817   1.417       .  A
C816        C821   1.451       .  S
C817        C818   1.420       .  A
C817        C824   1.451       .  S
C818        C819   1.409       .  A
C819        C820   1.419       .  A
C819        C822   1.450       .  S
C820        C823   1.451       .  S
C821        N828   1.157       .  T
C822        N827   1.157       .  T
C823        N825   1.157       .  T
C824        N826   1.157       .  T
C829        C830   1.397       .  A
C829        C834   1.429       .  A
C830        C831   1.409       .  A
C830        C835   1.450       .  S
C831        C832   1.423       .  A
C831        C838   1.448       .  S
C832        C833   1.400       .  A
C833        C834   1.411       .  A
C833        C836   1.452       .  S
C834        C837   1.452       .  S
C835        N842   1.157       .  T
C836        N841   1.158       .  T
C837        N839   1.158       .  T
C838        N840   1.156       .  T
C843        C844   1.419       .  A
C843        C848   1.406       .  A
C844        C845   1.417       .  A
C844        C849   1.451       .  S
C845        C846   1.418       .  A
C845        C852   1.451       .  S
C846        C847   1.429       .  A
C847        C848   1.418       .  A
C847        C850   1.453       .  S
C848        C851   1.450       .  S
C849        N856   1.157       .  T
C850        N855   1.158       .  T
C851        N853   1.157       .  T
C852        N854   1.157       .  T
C857        C858   1.403       .  A
C857        C862   1.417       .  A
C858        C859   1.416       .  A
C858        C863   1.451       .  S
C859        C860   1.435       .  A
C859        C866   1.453       .  S
C860        C861   1.419       .  A
C861        C862   1.413       .  A
C861        C864   1.452       .  S
C862        C865   1.452       .  S
C863        N870   1.157       .  T
C864        N869   1.158       .  T
C865        N867   1.157       .  T
C866        N868   1.158       .  T
C871        C872   1.419       .  A
C871        C876   1.404       .  A
C872        C873   1.420       .  A
C872        C877   1.451       .  S
C873        C874   1.419       .  A
C873        C880   1.451       .  S
C874        C875   1.434       .  A
C875        C876   1.419       .  A
C875       C1902   1.451       .  S
C876        C879   1.452       .  S
C877        N884   1.157       .  T
C878       C1899   1.451       .  S
C878        N883   1.158   1_556  T
C879        N881   1.157       .  T
C880        N882   1.158       .  T
C885        C886   1.411   1_455  A
C885       C1914   1.419   1_545  A
C886       C1911   1.420   1_545  A
C886        C891   1.451       .  S
C887        C888   1.421       .  A
C887       C1910   1.420   1_564  A
C887        C894   1.451   1_565  S
C888        C889   1.412   1_655  A
C889        C890   1.419       .  A
C889        C892   1.450       .  S
C890       C1909   1.419   1_564  A
C890        C893   1.451   1_554  S
C891        N898   1.157       .  T
C892        N897   1.157       .  T
C893        N895   1.157       .  T
C894        N896   1.157       .  T
C899        C900   1.415       .  A
C899        C904   1.408   1_565  A
C900        C901   1.411   1_655  A
C900        C905   1.450   1_655  S
C901        C902   1.405   1_565  A
C901        C908   1.441       .  S
C902        C903   1.415   1_455  A
C903        C904   1.412       .  A
C903        C906   1.452       .  S
C904        C907   1.440       .  S
C905        N912   1.156       .  T
C906        N911   1.157       .  T
C907        N909   1.153       .  T
C908        N910   1.154       .  T
C913        C914   1.423       .  A
C913        C918   1.415       .  A
C914        C915   1.416       .  A
C914        C919   1.452       .  S
C915        C916   1.407       .  A
C915        C922   1.447       .  S
C916        C917   1.421       .  A
C917        C918   1.420       .  A
C917        C920   1.449       .  S
C918        C921   1.451       .  S
C919        N926   1.157       .  T
C920        N925   1.157       .  T
C921        N923   1.158       .  T
C922        N924   1.156       .  T
C927        C928   1.422       .  A
C927        C932   1.403       .  A
C928        C929   1.416       .  A
C928        C933   1.452       .  S
C929        C930   1.413       .  A
C929        C936   1.451       .  S
C930        C931   1.433       .  A
C931        C932   1.414       .  A
C931        C934   1.451       .  S
C932        C935   1.452       .  S
C933        N940   1.157       .  T
C934        N939   1.157   1_565  T
C935        N937   1.157       .  T
C936        N938   1.157       .  T
C941        C942   1.423       .  A
C941        C946   1.413       .  A
C942        C943   1.415       .  A
C942        C947   1.449       .  S
C943        C944   1.406       .  A
C943       C1974   1.450   1_554  S
C944        C945   1.414       .  A
C945        C946   1.409       .  A
C945        C948   1.445       .  S
C946        C949   1.449       .  S
C947        N954   1.157       .  T
C948        N953   1.154       .  T
C949        N951   1.156       .  T
C950       C1967   1.450       .  S
C950        N952   1.157       .  T
C955        C956   1.409       .  A
C955        C960   1.419   1_545  A
C956        C957   1.412   1_545  A
C956        C961   1.450       .  S
C957        C958   1.416       .  A
C957        C964   1.452   1_565  S
C958        C959   1.407       .  A
C959        C960   1.410       .  A
C959        C962   1.452       .  S
C960        C963   1.453       .  S
C961        N968   1.157       .  T
C962        N967   1.157       .  T
C963        N965   1.157       .  T
C964        N966   1.157       .  T
C969        C974   1.437   1_565  A
C969       C1994   1.400       .  A
C970        C971   1.407       .  A
C970       C1993   1.400       .  A
C970        C975   1.452       .  S
C971        C972   1.430   1_565  A
C971        C978   1.451       .  S
C972       C1997   1.399       .  A
C973        C974   1.413       .  A
C973       C1996   1.399   1_554  A
C973        C976   1.453       .  S
C974        C977   1.452       .  S
C975        N982   1.157       .  T
C976        N981   1.157       .  T
C977        N979   1.158       .  T
C978        N980   1.158       .  T
C983        C984   1.419       .  A
C983        C988   1.409       .  A
C984        C985   1.419       .  A
C984        C989   1.449       .  S
C985        C986   1.412       .  A
C985        C992   1.450       .  S
C986        C987   1.422       .  A
C987        C988   1.412       .  A
C987        C990   1.448       .  S
C988        C991   1.452       .  S
C989        N996   1.157       .  T
C990       N2019   1.157       .  T
C991        N993   1.157       .  T
C992        N994   1.157       .  T
N995       C2014   1.157       .  T
C997        C998   1.406       .  A
C997       C1002   1.430       .  A
C998        C999   1.416       .  A
C998       C1003   1.452       .  S
C999       C1000   1.431       .  A
C999       C1006   1.450       .  S
C1000      C1001   1.406       .  A
C1001      C1002   1.412       .  A
C1001      C1004   1.453       .  S
C1002      C1005   1.452       .  S
C1003      N1010   1.157       .  T
C1004      N1009   1.157       .  T
C1005      N1007   1.158       .  T
C1006      N1008   1.158       .  T
C1011      C1012   1.418       .  A
C1011      C1016   1.403       .  A
C1012      C1013   1.409       .  A
C1012      C1017   1.453       .  S
C1013      C1014   1.415       .  A
C1013      C1020   1.452       .  S
C1014      C1015   1.436       .  A
C1015      C1016   1.412       .  A
C1015      C1018   1.453       .  S
C1016      C1019   1.454       .  S
C1017      N1024   1.157       .  T
C1018      N1023   1.158       .  T
C1019      N1021   1.158       .  T
C1020      N1022   1.157       .  T
O1025      C1040   1.257   1_565  A
O1025     Al1033   1.879       .  S
C1026      O1036   1.251       .  A
C1026      O1027   1.276       .  A
C1026      C2038   1.506       .  S
O1027     Al1029   1.956       .  S
O1028      C1030   1.242       .  A
O1028     Al1029   1.827       .  S
Al1029     O1037   1.846       .  S
Al1029     O1039   1.968   1_565  S
Al1029     O1038   1.748       .  S
C1030      O1043   1.285       .  A
C1030      C1993   1.496       .  S
O1031      C1041   1.256       .  A
O1031     Al1033   1.867       .  S
O1032      C1045   1.253       .  A
O1032     Al1042   1.852       .  S
Al1033     O1046   2.007       .  S
Al1033     O1043   2.021       .  S
Al1033     O1038   1.758       .  S
O1034      C1041   1.277       .  A
O1034     Al1042   1.976       .  S
O1035      C1044   1.276       .  A
O1035     Al1042   1.977       .  S
O1036     Al1042   1.850       .  S
O1037      C1044   1.251       .  A
O1038     Al1042   1.760       .  S
O1039      C1040   1.275       .  A
C1040      C2007   1.503       .  S
C1041      C1965   1.501       .  S
C1044      C1982   1.477       .  S
C1045      O1046   1.284       .  A
C1045      C2021   1.501       .  S
O1047      C1062   1.251   1_545  A
O1047     Al1055   1.875       .  S
C1048      O1058   1.253   1_655  A
C1048      O1049   1.275       .  A
C1048      C1937   1.511       .  S
O1049     Al1051   1.976   1_655  S
O1050      C1052   1.248       .  A
O1050     Al1051   1.829       .  S
Al1051     O1059   1.860       .  S
Al1051     O1061   1.990   1_545  S
Al1051     O1060   1.769       .  S
C1052      O1065   1.282       .  A
C1052      C1926   1.483       .  S
O1053      C1063   1.250       .  A
O1053     Al1055   1.850       .  S
O1054      C1067   1.257       .  A
O1054     Al1064   1.874       .  S
Al1055     O1068   1.985       .  S
Al1055     O1065   2.014       .  S
Al1055     O1060   1.756       .  S
O1056      C1063   1.278       .  A
O1056     Al1064   1.991       .  S
O1057      C1066   1.285       .  A
O1057     Al1064   2.005       .  S
O1058     Al1064   1.864       .  S
O1059      C1066   1.256       .  A
O1060     Al1064   1.762       .  S
O1061      C1062   1.277       .  A
C1062      C1954   1.510       .  S
C1063      C1881   1.486       .  S
C1066      C1909   1.498       .  S
C1067      O1068   1.277       .  A
C1067      C1895   1.499       .  S
O1069      C1084   1.252       .  A
O1069     Al1077   1.875       .  S
C1070      O1080   1.254       .  A
C1070      O1071   1.275       .  A
C1070      C1825   1.488       .  S
O1071     Al1073   1.965       .  S
O1072      C1074   1.242       .  A
O1072     Al1073   1.807       .  S
Al1073     O1081   1.852       .  S
Al1073     O1083   1.978       .  S
Al1073     O1082   1.763       .  S
C1074      O1087   1.283       .  A
C1074      C1853   1.480       .  S
O1075      C1085   1.253       .  A
O1075     Al1077   1.861       .  S
O1076      C1089   1.256       .  A
O1076     Al1086   1.858       .  S
Al1077     O1090   1.987       .  S
Al1077     O1087   2.027       .  S
Al1077     O1082   1.757       .  S
O1078      C1085   1.277       .  A
O1078     Al1086   1.999       .  S
O1079      C1088   1.284       .  A
O1079     Al1086   2.008       .  S
O1080     Al1086   1.862       .  S
O1081      C1088   1.254       .  A
O1082     Al1086   1.766       .  S
O1083      C1084   1.274       .  A
C1084      C2024   1.503       .  S
C1085      C1867   1.495       .  S
C1088      C1839   1.494       .  S
C1089      O1090   1.281       .  A
C1089      C1951   1.492       .  S
O1091      C1106   1.278       .  A
O1091     Al1099   1.981       .  S
C1092      O1102   1.277       .  A
C1092      O1093   1.255   1_455  A
C1092      C1870   1.514       .  S
O1093     Al1095   1.865       .  S
O1094      C1096   1.280       .  A
O1094     Al1095   2.008       .  S
Al1095     O1103   2.007       .  S
Al1095     O1105   1.853       .  S
Al1095     O1104   1.757       .  S
C1096      O1109   1.253       .  A
C1096      C1800   1.499       .  S
O1097      C1107   1.282       .  A
O1097     Al1099   2.013       .  S
O1098      C1111   1.275       .  A
O1098     Al1108   1.977   1_545  S
Al1099     O1112   1.870       .  S
Al1099     O1109   1.864       .  S
Al1099     O1104   1.757       .  S
O1100      C1107   1.248       .  A
O1100     Al1108   1.827       .  S
O1101      C1110   1.255       .  A
O1101     Al1108   1.866       .  S
O1102     Al1108   1.974   1_455  S
O1103      C1110   1.284       .  A
O1104     Al1108   1.762       .  S
O1105      C1106   1.252       .  A
C1106      C1783   1.489       .  S
C1107      C1923   1.484       .  S
C1110      C1912   1.501       .  S
C1111      O1112   1.250   1_545  A
C1111      C1811   1.501       .  S
O1113      C1128   1.279       .  A
O1113     Al1121   1.980       .  S
C1114      O1124   1.279       .  A
C1114      O1115   1.254       .  A
C1114      C1772   1.508       .  S
O1115     Al1117   1.849       .  S
O1116      C1118   1.280       .  A
O1116     Al1117   2.009       .  S
Al1117     O1125   1.998       .  S
Al1117     O1127   1.852       .  S
Al1117     O1126   1.761       .  S
C1118      O1131   1.252       .  A
C1118      C1940   1.498       .  S
O1119      C1129   1.283       .  A
O1119     Al1121   2.022       .  S
O1120      C1133   1.277       .  A
O1120     Al1130   1.993       .  S
Al1121     O1134   1.862       .  S
Al1121     O1131   1.865       .  S
Al1121     O1126   1.748       .  S
O1122      C1129   1.243       .  A
O1122     Al1130   1.812       .  S
O1123      C1132   1.254       .  A
O1123     Al1130   1.854       .  S
O1124     Al1130   1.979       .  S
O1125      C1132   1.282       .  A
O1126     Al1130   1.764       .  S
O1127      C1128   1.252       .  A
C1128      C1814   1.486       .  S
C1129      C1758   1.478       .  S
C1132      C1744   1.493       .  S
C1133      O1134   1.245       .  A
C1133      C1730   1.503       .  S
O1135      C1150   1.276       .  A
O1135     Al1143   1.979       .  S
C1136      O1146   1.270       .  A
C1136      O1137   1.247       .  A
C1136      C1884   1.512       .  S
O1137     Al1139   1.855       .  S
O1138      C1140   1.281       .  A
O1138     Al1139   1.997       .  S
Al1139     O1147   2.005       .  S
Al1139     O1149   1.869       .  S
Al1139     O1148   1.758       .  S
C1140      O1153   1.248       .  A
C1140      C1699   1.505       .  S
O1141      C1151   1.280       .  A
O1141     Al1143   1.990       .  S
O1142      C1155   1.275       .  A
O1142     Al1152   1.971       .  S
Al1143     O1156   1.882       .  S
Al1143     O1153   1.832       .  S
Al1143     O1148   1.761       .  S
O1144      C1151   1.248       .  A
O1144     Al1152   1.838       .  S
O1145      C1154   1.257       .  A
O1145     Al1152   1.857       .  S
O1146     Al1152   1.953       .  S
O1147      C1154   1.286       .  A
O1148     Al1152   1.767       .  S
O1149      C1150   1.254       .  A
C1150      C1713   1.501       .  S
C1151      C1685   1.484       .  S
C1154      C1671   1.509       .  S
C1155      O1156   1.257       .  A
C1155      C1660   1.504       .  S
O1157      C1172   1.283       .  A
O1157     Al1165   1.996       .  S
C1158      O1168   1.275       .  A
C1158      O1159   1.254   1_655  A
C1158      C1601   1.489       .  S
O1159     Al1161   1.869       .  S
O1160      C1162   1.282       .  A
O1160     Al1161   2.010       .  S
Al1161     O1169   2.006       .  S
Al1161     O1171   1.849       .  S
Al1161     O1170   1.752       .  S
C1162      O1175   1.246       .  A
C1162      C1828   1.515       .  S
O1163      C1173   1.285       .  A
O1163     Al1165   2.034       .  S
O1164      C1177   1.282       .  A
O1164     Al1174   2.018       .  S
Al1165     O1178   1.871       .  S
Al1165     O1175   1.834       .  S
Al1165     O1170   1.743       .  S
O1166      C1173   1.231       .  A
O1166     Al1174   1.811       .  S
O1167      C1176   1.257       .  A
O1167     Al1174   1.843       .  S
O1168     Al1174   1.963   1_655  S
O1169      C1176   1.286       .  A
O1170     Al1174   1.744       .  S
O1171      C1172   1.254       .  A
C1172      C1646   1.489       .  S
C1173      C1629   1.503       .  S
C1176      C1615   1.486       .  S
C1177      O1178   1.251       .  A
C1177      C1716   1.514       .  S
O1179      C1194   1.257       .  A
O1179     Al1187   1.886       .  S
C1180      O1190   1.251   1_455  A
C1180      O1181   1.277       .  A
C1180      C1702   1.492       .  S
O1181     Al1183   1.969   1_455  S
O1182      C1184   1.231       .  A
O1182     Al1183   1.783       .  S
Al1183     O1191   1.848       .  S
Al1183     O1193   1.992       .  S
Al1183     O1192   1.754       .  S
C1184      O1197   1.287       .  A
C1184      C1632   1.504       .  S
O1185      C1195   1.256       .  A
O1185     Al1187   1.867       .  S
O1186      C1199   1.253       .  A
O1186     Al1196   1.854       .  S
Al1187     O1200   1.998       .  S
Al1187     O1197   2.031       .  S
Al1187     O1192   1.758       .  S
O1188      C1195   1.274       .  A
O1188     Al1196   1.981       .  S
O1189      C1198   1.281       .  A
O1189     Al1196   1.994       .  S
O1190     Al1196   1.872       .  S
O1191      C1198   1.254       .  A
O1192     Al1196   1.759       .  S
O1193      C1194   1.276       .  A
C1194      C1573   1.507       .  S
C1195      C1769   1.484       .  S
C1198      C1618   1.488       .  S
C1199      O1200   1.284       .  A
C1199      C1590   1.498       .  S
O1201     Al1209   1.976       .  S
C1202      O1212   1.275       .  A
C1202      C1968   1.482       .  S
O1203     Al1205   1.846   1_554  S
O1204      C1206   1.280       .  A
Al1205     O1213   2.000       .  S
Al1205     O1215   1.860       .  S
C1206      O1219   1.255       .  A
C1206      C1562   1.494       .  S
O1207      C1217   1.279       .  A
O1207     Al1209   2.015       .  S
O1208      C1221   1.277       .  A
O1208     Al1218   1.985       .  S
Al1209     O1222   1.868       .  S
Al1209     O1219   1.858       .  S
Al1209     O1214   1.760       .  S
O1210      C1217   1.244       .  A
O1210     Al1218   1.819       .  S
O1211      C1220   1.253       .  A
O1212     Al1218   1.969       .  S
O1213      C1220   1.281       .  A
O1214     Al1218   1.761       .  S
O1215      C1216   1.254       .  A
C1216      C1545   1.484       .  S
C1217      C1856   1.480       .  S
C1220      C1842   1.495       .  S
C1221      O1222   1.250       .  A
C1221      C1643   1.502       .  S
O1223      C1238   1.250   1_554  A
O1223     Al1231   1.866   1_554  S
C1224      O1234   1.251       .  A
C1224      O1225   1.277       .  A
O1226      C1228   1.244       .  A
O1226     Al1227   1.818   1_556  S
Al1227     O1237   1.987   1_554  S
C1228      O1241   1.275       .  A
C1228      C1755   1.469       .  S
O1229      C1239   1.250       .  A
O1229     Al1231   1.849       .  S
O1230      C1243   1.255       .  A
O1230     Al1240   1.865       .  S
Al1231     O1241   1.998       .  S
O1232     Al1240   1.993       .  S
O1233      C1242   1.281       .  A
O1233     Al1240   1.995       .  S
O1234     Al1240   1.847       .  S
O1235      C1242   1.254       .  A
O1236     Al1240   1.767       .  S
O1237      C1238   1.278       .  A
C1238      C1587   1.498       .  S
C1239      C1503   1.484       .  S
C1242      C1741   1.494       .  S
C1243      O1244   1.273       .  A
C1243      C1517   1.479       .  S
O1245      C1260   1.274       .  A
O1245     Al1253   1.966       .  S
C1246      O1256   1.272       .  A
C1246      O1247   1.248       .  A
C1246      C1506   1.511       .  S
O1247     Al1249   1.853       .  S
O1248      C1250   1.284       .  A
O1248     Al1249   2.007       .  S
Al1249     O1257   2.012       .  S
Al1249     O1259   1.867       .  S
Al1249     O1258   1.760       .  S
C1250      O1263   1.247       .  A
C1250      C1492   1.511       .  S
O1251      C1261   1.278       .  A
O1251     Al1253   2.000       .  S
O1252      C1265   1.277       .  A
O1252     Al1262   1.981       .  S
Al1253     O1266   1.874       .  S
Al1253     O1263   1.822       .  S
Al1253     O1258   1.755       .  S
O1254      C1261   1.250       .  A
O1254     Al1262   1.841       .  S
O1255      C1264   1.256       .  A
O1255     Al1262   1.856       .  S
O1256     Al1262   1.958       .  S
O1257      C1264   1.287       .  A
O1258     Al1262   1.758       .  S
O1259      C1260   1.254       .  A
C1260      C1657   1.490       .  S
C1261      C1475   1.483       .  S
C1264      C1464   1.508       .  S
C1265      O1266   1.254       .  A
C1265      C1548   1.505       .  S
O1267      C1282   1.255   1_554  A
O1267     Al1275   1.875   1_554  S
C1268      O1278   1.246       .  A
C1268      O1269   1.275       .  A
O1270      C1272   1.234       .  A
O1270     Al1271   1.807   1_556  S
Al1271     O1281   2.006   1_554  S
C1272      O1285   1.288       .  A
C1272      C1688   1.510       .  S
O1273      C1283   1.257       .  A
O1273     Al1275   1.862       .  S
O1274      C1287   1.254       .  A
O1274     Al1284   1.862       .  S
Al1275     O1285   2.052       .  S
O1276     Al1284   1.975       .  S
O1277      C1286   1.285       .  A
O1277     Al1284   2.008       .  S
O1278     Al1284   1.854       .  S
O1279      C1286   1.255       .  A
O1280     Al1284   1.759       .  S
O1281      C1282   1.280       .  A
C1282      C1898   1.524       .  S
C1283      C1450   1.495       .  S
C1286      C1674   1.507       .  S
C1287      O1288   1.281       .  A
C1287      C2010   1.494       .  S
O1289      C1304   1.281       .  A
O1289     Al1297   1.988       .  S
C1290      O1300   1.275       .  A
C1290      O1291   1.255       .  A
C1290      C1447   1.518       .  S
O1291     Al1293   1.873       .  S
O1292      C1294   1.280       .  A
O1292     Al1293   1.999       .  S
Al1293     O1301   1.994       .  S
Al1293     O1303   1.854       .  S
Al1293     O1302   1.758       .  S
C1294      O1307   1.252       .  A
C1294      C1534   1.486       .  S
O1295      C1305   1.285       .  A
O1295     Al1297   2.029       .  S
O1296      C1309   1.277       .  A
O1296     Al1306   1.995   1_565  S
Al1297     O1310   1.878       .  S
Al1297     O1307   1.850       .  S
Al1297     O1302   1.753       .  S
O1298      C1305   1.245       .  A
O1298     Al1306   1.831       .  S
O1299      C1308   1.252       .  A
O1299     Al1306   1.834       .  S
O1300     Al1306   1.965       .  S
O1301      C1308   1.282       .  A
O1302     Al1306   1.749       .  S
O1303      C1304   1.251       .  A
C1304      C1727   1.492       .  S
C1305      C1996   1.489       .  S
C1308      C1979   1.480       .  S
C1309      O1310   1.252   1_565  A
C1309      C1433   1.512       .  S
O1311     Al1319   1.968       .  S
C1312      O1322   1.272       .  A
C1312      C1391   1.499       .  S
O1313     Al1315   1.882   1_554  S
O1314      C1316   1.275       .  A
Al1315     O1323   1.987       .  S
Al1315     O1325   1.876       .  S
C1316      O1329   1.254       .  A
C1316      C2035   1.485       .  S
O1317      C1327   1.276       .  A
O1317     Al1319   1.997       .  S
O1318      C1331   1.275       .  A
O1318     Al1328   1.972       .  S
Al1319     O1332   1.876       .  S
Al1319     O1329   1.851       .  S
Al1319     O1324   1.762       .  S
O1320      C1327   1.247       .  A
O1320     Al1328   1.829       .  S
O1321      C1330   1.251       .  A
O1322     Al1328   1.965       .  S
O1323      C1330   1.281       .  A
O1324     Al1328   1.765       .  S
O1325      C1326   1.257       .  A
C1326      C1436   1.490       .  S
C1327      C1422   1.470       .  S
C1330      C1405   1.495       .  S
C1331      O1332   1.253       .  A
C1331      C1786   1.496       .  S
O1333      C1348   1.254       .  A
O1333     Al1341   1.872       .  S
C1334      O1344   1.257       .  A
C1334      O1335   1.281       .  A
C1334      C1797   1.519       .  S
O1335     Al1337   1.981       .  S
O1336      C1338   1.233       .  A
O1336     Al1337   1.797       .  S
Al1337     O1345   1.851       .  S
Al1337     O1347   2.014       .  S
Al1337     O1346   1.752       .  S
C1338      O1351   1.283       .  A
C1338      C1419   1.476       .  S
O1339      C1349   1.247       .  A
O1339     Al1341   1.854       .  S
O1340      C1353   1.258       .  A
O1340     Al1350   1.867       .  S
Al1341     O1354   2.022       .  S
Al1341     O1351   2.018       .  S
Al1341     O1346   1.745       .  S
O1342      C1349   1.279       .  A
O1342     Al1350   1.999       .  S
O1343      C1352   1.282       .  A
O1343     Al1350   1.988       .  S
O1344     Al1350   1.871       .  S
O1345      C1352   1.255       .  A
O1346     Al1350   1.762       .  S
O1347      C1348   1.280       .  A
C1348      C1377   1.501       .  S
C1349      C1604   1.508       .  S
C1352      C1408   1.494       .  S
C1353      O1354   1.288       .  A
C1353      C1576   1.505       .  S
O1355      C1370   1.252       .  A
O1355     Al1363   1.858       .  S
C1356      O1366   1.258       .  A
C1356      O1357   1.272       .  A
C1356      C1559   1.517       .  S
O1357     Al1359   1.945       .  S
O1358      C1360   1.247       .  A
O1358     Al1359   1.844       .  S
Al1359     O1367   1.859       .  S
Al1359     O1369   1.979       .  S
Al1359     O1368   1.760       .  S
C1360      O1373   1.275       .  A
C1360      C1478   1.484       .  S
O1361      C1371   1.255       .  A
O1361     Al1363   1.870       .  S
O1362      C1375   1.261       .  A
O1362     Al1372   1.898       .  S
Al1363     O1376   1.952       .  S
Al1363     O1373   1.984       .  S
Al1363     O1368   1.752       .  S
O1364      C1371   1.284       .  A
O1364     Al1372   2.014       .  S
O1365      C1374   1.284       .  A
O1365     Al1372   2.006       .  S
O1366     Al1372   1.887       .  S
O1367      C1374   1.255       .  A
O1368     Al1372   1.764       .  S
O1369      C1370   1.276       .  A
C1370      C1520   1.506       .  S
C1371      C1394   1.529       .  S
C1374      C1461   1.509       .  S
C1375      O1376   1.274       .  A
C1375      C1380   1.495       .  S
C1377      C1378   1.421       .  A
C1377      C1382   1.416       .  A
C1378      C1379   1.424       .  A
C1378      C1383   1.449       .  S
C1379      C1380   1.414       .  A
C1379      C1386   1.449       .  S
C1380      C1381   1.404       .  A
C1381      C1382   1.405       .  A
C1381      C1384   1.453       .  S
C1382      C1385   1.437       .  S
C1383      N1390   1.157       .  T
C1384      N1389   1.157       .  T
C1385      N1387   1.153       .  T
C1386      N1388   1.157       .  T
C1391      C1392   1.417       .  A
C1391      C1396   1.402       .  A
C1392      C1393   1.421       .  A
C1392      C1397   1.451       .  S
C1393      C1394   1.421       .  A
C1393      C1400   1.450       .  S
C1394      C1395   1.440       .  A
C1395      C1396   1.419       .  A
C1395      C1398   1.452       .  S
C1397      N1404   1.157       .  T
C1398      N1403   1.158       .  T
C1399      N1401   1.157   1_554  T
C1400      N1402   1.157       .  T
C1405      C1406   1.425       .  A
C1405      C1410   1.408       .  A
C1406      C1407   1.412       .  A
C1406      C1411   1.454       .  S
C1407      C1408   1.410       .  A
C1407      C1414   1.453       .  S
C1408      C1409   1.423       .  A
C1409      C1410   1.414       .  A
C1409      C1412   1.449       .  S
C1410      C1413   1.451       .  S
C1411      N1418   1.157       .  T
C1412      N1417   1.156       .  T
C1413      N1415   1.157       .  T
C1414      N1416   1.158       .  T
C1419      C1420   1.430       .  A
C1419      C1424   1.398       .  A
C1420      C1421   1.406       .  A
C1420      C1425   1.453       .  S
C1421      C1422   1.398       .  A
C1421      C1428   1.452       .  S
C1422      C1423   1.423       .  A
C1423      C1424   1.407       .  A
C1423      C1426   1.447       .  S
C1424      C1427   1.451       .  S
C1425      N1432   1.158       .  T
C1426      N1431   1.156       .  T
C1427      N1429   1.157       .  T
C1428      N1430   1.157       .  T
C1433      C1434   1.415       .  A
C1433      C1438   1.435       .  A
C1434      C1435   1.414       .  A
C1434      C1439   1.451       .  S
C1435      C1436   1.417       .  A
C1435      C1442   1.451       .  S
C1436      C1437   1.403       .  A
C1437      C1438   1.415       .  A
C1437      C1440   1.453       .  S
C1438      C1441   1.451       .  S
C1439      N1446   1.157       .  T
C1440      N1445   1.157       .  T
C1441      N1443   1.158   1_565  T
C1442      N1444   1.157       .  T
C1447      C1448   1.419       .  A
C1447      C1452   1.434       .  A
C1448      C1449   1.415       .  A
C1448      C1453   1.451       .  S
C1449      C1450   1.416       .  A
C1449      C1456   1.452       .  S
C1450      C1451   1.405       .  A
C1451      C1452   1.418       .  A
C1451      C1454   1.452       .  S
C1452      C1455   1.452       .  S
C1453      N1460   1.158       .  T
C1454      N1459   1.157       .  T
C1455      N1457   1.158       .  T
C1456      N1458   1.157       .  T
C1461      C1462   1.428       .  A
C1461      C1466   1.409       .  A
C1462      C1463   1.420       .  A
C1462      C1467   1.452       .  S
C1463      C1464   1.409       .  A
C1463      C1470   1.451       .  S
C1464      C1465   1.428       .  A
C1465      C1466   1.419       .  A
C1465      C1468   1.452       .  S
C1466      C1469   1.451       .  S
C1467      N1474   1.157       .  T
C1468      N1473   1.157       .  T
C1469      N1471   1.157       .  T
C1470      N1472   1.157       .  T
C1475      C1480   1.405   1_556  A
C1476      C1477   1.408       .  A
C1476      C1481   1.450       .  S
C1477      C1478   1.407       .  A
C1477      C1484   1.446       .  S
C1479      C1480   1.409       .  A
C1479      C1482   1.449       .  S
C1480      C1483   1.446   1_554  S
C1481      N1488   1.157       .  T
C1482      N1487   1.156       .  T
C1483      N1485   1.156       .  T
C1484      N1486   1.156       .  T
C1489      C1490   1.422       .  A
C1489      C1494   1.400       .  A
C1490      C1491   1.415       .  A
C1490      C1495   1.447       .  S
C1491      C1492   1.409       .  A
C1491      C1498   1.450       .  S
C1492      C1493   1.437       .  A
C1493      C1494   1.414       .  A
C1493      C1496   1.454       .  S
C1495      N1502   1.156       .  T
C1497      N1499   1.157       .  T
C1498      N1500   1.157       .  T
C1503      C1504   1.417       .  A
C1503      C1508   1.403       .  A
C1504      C1505   1.410       .  A
C1504      C1509   1.451       .  S
C1505      C1506   1.416       .  A
C1505      C1512   1.452       .  S
C1506      C1507   1.436       .  A
C1507      C1508   1.417       .  A
C1507      C1510   1.452       .  S
C1508      C1511   1.453       .  S
C1509      N1516   1.157       .  T
C1510      N1515   1.158       .  T
C1511      N1513   1.157       .  T
C1512      N1514   1.157       .  T
C1517      C1518   1.416       .  A
C1517      C1522   1.401       .  A
C1518      C1519   1.414       .  A
C1518      C1523   1.451       .  S
C1519      C1520   1.416       .  A
C1519      C1526   1.451       .  S
C1520      C1521   1.431       .  A
C1521      C1522   1.409       .  A
C1521      C1524   1.453       .  S
C1522      C1525   1.452       .  S
C1523      N1530   1.157       .  T
C1524      N1529   1.158       .  T
C1526      N1528   1.158       .  T
C1531      C1532   1.413       .  A
C1531      C1536   1.422       .  A
C1532      C1533   1.417       .  A
C1532      C1537   1.450       .  S
C1533      C1534   1.417       .  A
C1533      C1540   1.448       .  S
C1534      C1535   1.411       .  A
C1535      C1536   1.413       .  A
C1535      C1538   1.453       .  S
C1537      N1544   1.157       .  T
C1538      N1543   1.157       .  T
C1539      N1541   1.157       .  T
C1540      N1542   1.156       .  T
C1545      C1546   1.401       .  A
C1545      C1550   1.418       .  A
C1546      C1547   1.412       .  A
C1547      C1548   1.434       .  A
C1547      C1554   1.451       .  S
C1548      C1549   1.415       .  A
C1549      C1550   1.412       .  A
C1549      C1552   1.452       .  S
C1550      C1553   1.452       .  S
C1551      N1558   1.157       .  T
C1552      N1557   1.157       .  T
C1553      N1555   1.157       .  T
C1554      N1556   1.158       .  T
C1559      C1560   1.420       .  A
C1559      C1564   1.433       .  A
C1560      C1561   1.413       .  A
C1560      C1565   1.452       .  S
C1561      C1562   1.418       .  A
C1561      C1568   1.452       .  S
C1562      C1563   1.405       .  A
C1563      C1564   1.419       .  A
C1563      C1566   1.452       .  S
C1564      C1567   1.450       .  S
C1565      N1572   1.157       .  T
C1566      N1571   1.157       .  T
C1567      N1569   1.157       .  T
C1568      N1570   1.157       .  T
C1573      C1574   1.416       .  A
C1573      C1578   1.412       .  A
C1574      C1575   1.422       .  A
C1574      C1579   1.450       .  S
C1575      C1576   1.422       .  A
C1575      C1582   1.451       .  S
C1576      C1577   1.411       .  A
C1577      C1578   1.414       .  A
C1577      C1580   1.444       .  S
C1578      C1581   1.447       .  S
C1579      N1586   1.157       .  T
C1580      N1585   1.156       .  T
C1581      N1583   1.157       .  T
C1582      N1584   1.157       .  T
C1587      C1588   1.404       .  A
C1587      C1592   1.429       .  A
C1588      C1589   1.412       .  A
C1589      C1590   1.431       .  A
C1589      C1596   1.451       .  S
C1590      C1591   1.405       .  A
C1591      C1592   1.413       .  A
C1591      C1594   1.453       .  S
C1592      C1595   1.450       .  S
C1593      N1600   1.157       .  T
C1594      N1599   1.157       .  T
C1595      N1597   1.157       .  T
C1596      N1598   1.158       .  T
C1601      C1602   1.420       .  A
C1601      C1606   1.401       .  A
C1602      C1603   1.413       .  A
C1602      C1607   1.448       .  S
C1603      C1604   1.411       .  A
C1603      C1610   1.452       .  S
C1604      C1605   1.437       .  A
C1605      C1606   1.413       .  A
C1605      C1608   1.453       .  S
C1606      C1609   1.453       .  S
C1607      N1614   1.156   1_655  T
C1608      N1613   1.158       .  T
C1609      N1611   1.157       .  T
C1610      N1612   1.157       .  T
C1615      C1616   1.408       .  A
C1615      C1620   1.419   1_455  A
C1616      C1621   1.450       .  S
C1617      C1618   1.420   1_455  A
C1617      C1624   1.452       .  S
C1619      C1620   1.413       .  A
C1619      C1622   1.450       .  S
C1620      C1623   1.453       .  S
C1621      N1628   1.158       .  T
C1622      N1627   1.158       .  T
C1623      N1625   1.157       .  T
C1624      N1626   1.157       .  T
C1629      C1630   1.400       .  A
C1629      C1634   1.445   1_455  A
C1630      C1631   1.407       .  A
C1630      C1635   1.456       .  S
C1631      C1632   1.446   1_455  A
C1631      C1638   1.455       .  S
C1632      C1633   1.400       .  A
C1633      C1634   1.410       .  A
C1633      C1636   1.455       .  S
C1634      C1637   1.454       .  S
C1635      N1642   1.158       .  T
C1636      N1641   1.158       .  T
C1637      N1639   1.157       .  T
C1638      N1640   1.157       .  T
C1643      C1644   1.407       .  A
C1643      C1648   1.432       .  A
C1644      C1645   1.411       .  A
C1644      C1649   1.452       .  S
C1645      C1646   1.424       .  A
C1645      C1652   1.451       .  S
C1646      C1647   1.402       .  A
C1647      C1648   1.412       .  A
C1647      C1650   1.453       .  S
C1648      C1651   1.450       .  S
C1650      N1655   1.157       .  T
C1651      N1653   1.157       .  T
C1652      N1654   1.157       .  T
C1657      C1658   1.419       .  A
C1657      C1662   1.404       .  A
C1658      C1659   1.413       .  A
C1658      C1663   1.451       .  S
C1659      C1660   1.414       .  A
C1659      C1666   1.452       .  S
C1660      C1661   1.429       .  A
C1661      C1662   1.413       .  A
C1661      C1664   1.451       .  S
C1662      C1665   1.451       .  S
C1663      N1670   1.157       .  T
C1664      N1669   1.157       .  T
C1665      N1667   1.157       .  T
C1666      N1668   1.157       .  T
C1671      C1672   1.412       .  A
C1671      C1676   1.427       .  A
C1672      C1673   1.419       .  A
C1672      C1677   1.451       .  S
C1673      C1674   1.424       .  A
C1673      C1680   1.452       .  S
C1674      C1675   1.410       .  A
C1675      C1676   1.420       .  A
C1675      C1678   1.449       .  S
C1676      C1679   1.452       .  S
C1677      N1684   1.157       .  T
C1678      N1683   1.157       .  T
C1679      N1681   1.158       .  T
C1680      N1682   1.157       .  T
C1685      C1686   1.396       .  A
C1685      C1690   1.415       .  A
C1686      C1687   1.408       .  A
C1686      C1691   1.454       .  S
C1687      C1688   1.446       .  A
C1687      C1694   1.451       .  S
C1688      C1689   1.411       .  A
C1689      C1690   1.411       .  A
C1689      C1692   1.447       .  S
C1690      C1693   1.447       .  S
C1691      N1698   1.157       .  T
C1692      N1697   1.157       .  T
C1693      N1695   1.156       .  T
C1694      N1696   1.156       .  T
C1699      C1700   1.408       .  A
C1699      C1704   1.430       .  A
C1700      C1701   1.415       .  A
C1700      C1705   1.449       .  S
C1701      C1702   1.422       .  A
C1701      C1708   1.447   1_455  S
C1702      C1703   1.403       .  A
C1703      C1704   1.414       .  A
C1703      C1706   1.452       .  S
C1704      C1707   1.451       .  S
C1705      N1712   1.157       .  T
C1706      N1711   1.157       .  T
C1707      N1709   1.157       .  T
C1708      N1710   1.157       .  T
C1713      C1714   1.424       .  A
C1713      C1718   1.404       .  A
C1714      C1715   1.417       .  A
C1714      C1719   1.450       .  S
C1715      C1716   1.410       .  A
C1715      C1722   1.451       .  S
C1716      C1717   1.435       .  A
C1717      C1718   1.416       .  A
C1717      C1720   1.451       .  S
C1718      C1721   1.453       .  S
C1719      N1726   1.157       .  T
C1720      N1725   1.158       .  T
C1721      N1723   1.157       .  T
C1722      N1724   1.157       .  T
C1727      C1728   1.401       .  A
C1727      C1732   1.424       .  A
C1728      C1729   1.411       .  A
C1728      C1733   1.451       .  S
C1729      C1730   1.433       .  A
C1729      C1736   1.451       .  S
C1730      C1731   1.408       .  A
C1731      C1732   1.414       .  A
C1731      C1734   1.452       .  S
C1732      C1735   1.451       .  S
C1733      N1740   1.157       .  T
C1734      N1739   1.157       .  T
C1735      N1737   1.157       .  T
C1736      N1738   1.158       .  T
C1741      C1742   1.420       .  A
C1741      C1746   1.411       .  A
C1742      C1743   1.416       .  A
C1742      C1747   1.452       .  S
C1743      C1744   1.410       .  A
C1743      C1750   1.450       .  S
C1744      C1745   1.420       .  A
C1745      C1746   1.417       .  A
C1745      C1748   1.452       .  S
C1746      C1749   1.451       .  S
C1747      N1754   1.157       .  T
C1748      N1753   1.158       .  T
C1749      N1751   1.157       .  T
C1750      N1752   1.157       .  T
C1755      C1756   1.410       .  A
C1755      C1760   1.406       .  A
C1756      C1757   1.411       .  A
C1756      C1761   1.445       .  S
C1757      C1758   1.412       .  A
C1757      C1764   1.450       .  S
C1758      C1759   1.415       .  A
C1759      C1760   1.411       .  A
C1759      C1762   1.438       .  S
C1760      C1763   1.454       .  S
C1761      N1768   1.155       .  T
C1762      N1767   1.153       .  T
C1763      N1765   1.157       .  T
C1764      N1766   1.156       .  T
C1769      C1770   1.402       .  A
C1769      C1774   1.413       .  A
C1770      C1771   1.411       .  A
C1770      C1775   1.450       .  S
C1771      C1772   1.428       .  A
C1771      C1778   1.453       .  S
C1772      C1773   1.419       .  A
C1773      C1774   1.417       .  A
C1773      C1776   1.450       .  S
C1774      C1777   1.450       .  S
C1775      N1782   1.157       .  T
C1776      N1781   1.158       .  T
C1777      N1779   1.157       .  T
C1778      N1780   1.158       .  T
C1783      C1784   1.423       .  A
C1783      C1788   1.406       .  A
C1784      C1785   1.408       .  A
C1784      C1789   1.451       .  S
C1785      C1786   1.405       .  A
C1785      C1792   1.451       .  S
C1786      C1787   1.426       .  A
C1787      C1788   1.414       .  A
C1787      C1790   1.451       .  S
C1788      C1791   1.451       .  S
C1789      N1796   1.157       .  T
C1790      N1795   1.158       .  T
C1791      N1793   1.157       .  T
C1792      N1794   1.157       .  T
C1797      C1798   1.427       .  A
C1797      C1802   1.418       .  A
C1798      C1799   1.420       .  A
C1798      C1803   1.452       .  S
C1799      C1800   1.409       .  A
C1799      C1806   1.447       .  S
C1800      C1801   1.416       .  A
C1801      C1802   1.420       .  A
C1801      C1804   1.451       .  S
C1802      C1805   1.448       .  S
C1803      N1810   1.157       .  T
C1804      N1809   1.157       .  T
C1805      N1807   1.157       .  T
C1806      N1808   1.156       .  T
C1811      C1812   1.412       .  A
C1811      C1816   1.432       .  A
C1812      C1813   1.413       .  A
C1812      C1817   1.452       .  S
C1813      C1814   1.422       .  A
C1813      C1820   1.452       .  S
C1814      C1815   1.402       .  A
C1815      C1816   1.410       .  A
C1815      C1818   1.452       .  S
C1816      C1819   1.451       .  S
C1817      N1824   1.157       .  T
C1818      N1823   1.157       .  T
C1819      N1821   1.158   1_545  T
C1820      N1822   1.157       .  T
C1825      C1826   1.399       .  A
C1825      C1830   1.416       .  A
C1826      C1827   1.416       .  A
C1826      C1831   1.453       .  S
C1827      C1828   1.442       .  A
C1827      C1834   1.453       .  S
C1828      C1829   1.412       .  A
C1829      C1830   1.412       .  A
C1829      C1832   1.451       .  S
C1830      C1833   1.446       .  S
C1831      N1838   1.157       .  T
C1832      N1837   1.157       .  T
C1833      N1835   1.155       .  T
C1834      N1836   1.158       .  T
C1839      C1840   1.409       .  A
C1839      C1844   1.421       .  A
C1840      C1841   1.417       .  A
C1840      C1845   1.451       .  S
C1841      C1842   1.420       .  A
C1841      C1848   1.451       .  S
C1842      C1843   1.409       .  A
C1843      C1844   1.419       .  A
C1843      C1846   1.450       .  S
C1844      C1847   1.451       .  S
C1845      N1852   1.157       .  T
C1846      N1851   1.157       .  T
C1847      N1849   1.157       .  T
C1848      N1850   1.157       .  T
C1853      C1854   1.397       .  A
C1853      C1858   1.429       .  A
C1854      C1855   1.409       .  A
C1854      C1859   1.450       .  S
C1855      C1856   1.423       .  A
C1855      C1862   1.448       .  S
C1856      C1857   1.400       .  A
C1857      C1858   1.411       .  A
C1857      C1860   1.452       .  S
C1858      C1861   1.452       .  S
C1859      N1866   1.157       .  T
C1860      N1865   1.158       .  T
C1861      N1863   1.158       .  T
C1862      N1864   1.156       .  T
C1867      C1868   1.419       .  A
C1867      C1872   1.406       .  A
C1868      C1869   1.417       .  A
C1868      C1873   1.451       .  S
C1869      C1870   1.418       .  A
C1869      C1876   1.451       .  S
C1870      C1871   1.429       .  A
C1871      C1872   1.418       .  A
C1871      C1874   1.453       .  S
C1872      C1875   1.450       .  S
C1873      N1880   1.157       .  T
C1874      N1879   1.158       .  T
C1875      N1877   1.157       .  T
C1876      N1878   1.157       .  T
C1881      C1882   1.403       .  A
C1881      C1886   1.417       .  A
C1882      C1883   1.416       .  A
C1882      C1887   1.451       .  S
C1883      C1884   1.435       .  A
C1883      C1890   1.453       .  S
C1884      C1885   1.419       .  A
C1885      C1886   1.413       .  A
C1885      C1888   1.452       .  S
C1886      C1889   1.452       .  S
C1887      N1894   1.157       .  T
C1888      N1893   1.158       .  T
C1889      N1891   1.157       .  T
C1890      N1892   1.158       .  T
C1895      C1896   1.419       .  A
C1895      C1900   1.404       .  A
C1896      C1897   1.420       .  A
C1896      C1901   1.451       .  S
C1897      C1898   1.419       .  A
C1897      C1904   1.451       .  S
C1898      C1899   1.434       .  A
C1899      C1900   1.419       .  A
C1900      C1903   1.452       .  S
C1901      N1908   1.157       .  T
C1902      N1907   1.158       .  T
C1903      N1905   1.157       .  T
C1904      N1906   1.158       .  T
C1909      C1910   1.411   1_455  A
C1910      C1915   1.451       .  S
C1911      C1912   1.421       .  A
C1911      C1918   1.451   1_565  S
C1912      C1913   1.412   1_655  A
C1913      C1914   1.419       .  A
C1913      C1916   1.450       .  S
C1914      C1917   1.451       .  S
C1915      N1922   1.157       .  T
C1916      N1921   1.157       .  T
C1917      N1919   1.157       .  T
C1918      N1920   1.157       .  T
C1923      C1924   1.415       .  A
C1923      C1928   1.408   1_565  A
C1924      C1925   1.411   1_655  A
C1924      C1929   1.450   1_655  S
C1925      C1926   1.405   1_565  A
C1925      C1932   1.441       .  S
C1926      C1927   1.415   1_455  A
C1927      C1928   1.413       .  A
C1927      C1930   1.452       .  S
C1928      C1931   1.440       .  S
C1929      N1936   1.156       .  T
C1930      N1935   1.157       .  T
C1931      N1933   1.153       .  T
C1932      N1934   1.154       .  T
C1937      C1938   1.423       .  A
C1937      C1942   1.415       .  A
C1938      C1939   1.416       .  A
C1938      C1943   1.452       .  S
C1939      C1940   1.407       .  A
C1939      C1946   1.447       .  S
C1940      C1941   1.421       .  A
C1941      C1942   1.420       .  A
C1941      C1944   1.449       .  S
C1942      C1945   1.451       .  S
C1943      N1950   1.157       .  T
C1944      N1949   1.157       .  T
C1945      N1947   1.158       .  T
C1946      N1948   1.156       .  T
C1951      C1952   1.422       .  A
C1951      C1956   1.403       .  A
C1952      C1953   1.416       .  A
C1952      C1957   1.452       .  S
C1953      C1954   1.413       .  A
C1953      C1960   1.451       .  S
C1954      C1955   1.433       .  A
C1955      C1956   1.414       .  A
C1955      C1958   1.451       .  S
C1956      C1959   1.452       .  S
C1957      N1964   1.157       .  T
C1958      N1963   1.157   1_565  T
C1959      N1961   1.157       .  T
C1960      N1962   1.157       .  T
C1965      C1966   1.423       .  A
C1965      C1970   1.413       .  A
C1966      C1967   1.415       .  A
C1966      C1971   1.449       .  S
C1967      C1968   1.406       .  A
C1968      C1969   1.414       .  A
C1969      C1970   1.409       .  A
C1969      C1972   1.445       .  S
C1970      C1973   1.449       .  S
C1971      N1978   1.157       .  T
C1972      N1977   1.154       .  T
C1973      N1975   1.156       .  T
C1974      N1976   1.157       .  T
C1979      C1980   1.409       .  A
C1979      C1984   1.419   1_545  A
C1980      C1981   1.412   1_545  A
C1980      C1985   1.450       .  S
C1981      C1982   1.416       .  A
C1981      C1988   1.452   1_565  S
C1982      C1983   1.408       .  A
C1983      C1984   1.410       .  A
C1983      C1986   1.452       .  S
C1984      C1987   1.453       .  S
C1985      N1992   1.157       .  T
C1986      N1991   1.157       .  T
C1987      N1989   1.157       .  T
C1988      N1990   1.157       .  T
C1993      C1998   1.437   1_565  A
C1994      C1995   1.407   1_554  A
C1994      C1999   1.452   1_554  S
C1995      C1996   1.430   1_565  A
C1995      C2002   1.451       .  S
C1997      C1998   1.413       .  A
C1997      C2000   1.453       .  S
C1998      C2001   1.452       .  S
C1999      N2006   1.157       .  T
C2000      N2005   1.157       .  T
C2001      N2003   1.158       .  T
C2002      N2004   1.158       .  T
C2007      C2008   1.419       .  A
C2007      C2012   1.409       .  A
C2008      C2009   1.419       .  A
C2008      C2013   1.449       .  S
C2009      C2010   1.412       .  A
C2009      C2016   1.450       .  S
C2010      C2011   1.422       .  A
C2011      C2012   1.412       .  A
C2011      C2014   1.448       .  S
C2012      C2015   1.452       .  S
C2013      N2020   1.157       .  T
C2015      N2017   1.157       .  T
C2016      N2018   1.157       .  T
C2021      C2022   1.406       .  A
C2021      C2026   1.430       .  A
C2022      C2023   1.416       .  A
C2022      C2027   1.452       .  S
C2023      C2024   1.431       .  A
C2023      C2030   1.450       .  S
C2024      C2025   1.406       .  A
C2025      C2026   1.412       .  A
C2025      C2028   1.453       .  S
C2026      C2029   1.452       .  S
C2027      N2034   1.157       .  T
C2028      N2033   1.157       .  T
C2029      N2031   1.158       .  T
C2030      N2032   1.158       .  T
C2035      C2036   1.418       .  A
C2035      C2040   1.403       .  A
C2036      C2037   1.409       .  A
C2036      C2041   1.453       .  S
C2037      C2038   1.415       .  A
C2037      C2044   1.452       .  S
C2038      C2039   1.436       .  A
C2039      C2040   1.412       .  A
C2039      C2042   1.453       .  S
C2040      C2043   1.454       .  S
C2041      N2048   1.157       .  T
C2042      N2047   1.158       .  T
C2043      N2045   1.158       .  T
C2044      N2046   1.157       .  T
