geometry optimzed in LAMMPS
_audit_creation_date              2020-12-01 
_audit_creation_method            'lammps2cif' 
_symmetry_space_group_name_H-M    'P1' 
_symmetry_Int_Tables_number       1 
_symmetry_cell_setting            triclinic 
loop_ 
_symmetry_equiv_pos_as_xyz 
  x,y,z 
_cell_length_a                    35.90823739 
_cell_length_b                    36.11529890435652 
_cell_length_c                    42.92498143368426 
_cell_angle_alpha                 90.4673313721271 
_cell_angle_beta                  89.56702092956796 
_cell_angle_gamma                 90.53544075858025 
loop_ 
_atom_site_label 
_atom_site_type_symbol 
_atom_site_fract_x 
_atom_site_fract_y 
_atom_site_fract_z 
_atom_site_charge 
O1          O  0.49220011  0.70614390  0.48045387    -0.85600
O2          O  0.53141341  0.72205222  0.03171508    -0.82600
C3          C  0.55636802  0.72209548  0.05200885     0.97900
O4          O  0.59038447  0.72113490  0.04447698    -0.82600
O5          O  0.60933515  0.65569731  0.01816922    -0.85300
C6          C  0.61365789  0.62948479  0.99918183     1.02400
O7          O  0.59907814  0.63975001  0.47341153    -0.78000
O8          O  0.52382278  0.65439649  0.47975669    -0.78200
C9          C  0.49376132  0.67135466  0.48448098     1.02400
O10         O  0.53439648  0.76119275  0.44545508    -0.85600
O11         O  0.56539305  0.78769179  0.50316146    -0.82600
C12         C  0.60039025  0.79307197  0.50267564     0.97900
O13         O  0.62178395  0.76768427  0.49351910    -0.82600
O14         O  0.64531417  0.70022674  0.46721955    -0.85300
C15         C  0.63862378  0.69627475  0.43820322     1.02400
O16         O  0.60535367  0.69636544  0.42871085    -0.78100
O17         O  0.52863668  0.70395969  0.42861260    -0.78200
C18         C  0.52418039  0.73824779  0.42476770     1.02400
Cr19       Cr  0.53302646  0.74391217  0.48941411     1.93700
Cr20       Cr  0.61715064  0.70738544  0.00526210     1.93200
Cr21       Cr  0.56450412  0.67654030  0.45480380     1.39100
O22         O  0.57025621  0.71245463  0.48268516    -1.23300
O23         O  0.73239873  0.47620292  0.29442751    -0.85600
O24         O  0.76034633  0.51505873  0.24570999    -0.82600
C25         C  0.76449980  0.54166121  0.22735354     0.97900
O26         O  0.76524102  0.57501527  0.23722717    -0.82600
O27         O  0.69514853  0.59518263  0.25642500    -0.85300
C28         C  0.66484839  0.59305401  0.27115753     1.02400
O29         O  0.66386445  0.58018364  0.29832401    -0.78000
O30         O  0.68006678  0.50624520  0.29206575    -0.78200
C31         C  0.69796872  0.47662684  0.28826049     1.02400
O32         O  0.78227149  0.51657916  0.33513393    -0.85600
O33         O  0.81467801  0.55041078  0.28195957    -0.82600
C34         C  0.81997015  0.58451057  0.28716171     0.97900
O35         O  0.79343730  0.60448686  0.29606289    -0.82600
O36         O  0.72278667  0.62787107  0.31327477    -0.85300
C37         C  0.71515233  0.61972371  0.34141989     1.02400
O38         O  0.71334177  0.58614085  0.34950572    -0.78100
O39         O  0.72325809  0.51009446  0.34776564    -0.78200
C40         C  0.75727683  0.50570098  0.35383332     1.02400
Cr41       Cr  0.77010153  0.51762956  0.29019928     1.93700
Cr42       Cr  0.74392766  0.59729138  0.27728206     1.93200
Cr43       Cr  0.69828452  0.54620613  0.32002519     1.39100
O44         O  0.73749959  0.55396481  0.29575366    -1.23300
O45         O  0.53684126  0.24686358  0.28368899    -0.85600
O46         O  0.49503075  0.27657843  0.23794172    -0.82600
C47         C  0.49721391  0.31086764  0.24464663     0.97900
O48         O  0.52706320  0.32832926  0.23878363    -0.82600
O49         O  0.60131099  0.34377929  0.22642265    -0.85300
C50         C  0.61584194  0.34400647  0.25299395     1.02400
O51         O  0.61690669  0.31476286  0.26863754    -0.78000
O52         O  0.59775808  0.24505140  0.28949466    -0.78200
C53         C  0.56494868  0.24362112  0.30072659     1.02400
O54         O  0.56856612  0.19324025  0.24432709    -0.85600
O55         O  0.53077824  0.22671602  0.19317651    -0.82600
C56         C  0.51885599  0.25172682  0.17543332     0.97900
O57         O  0.52334404  0.28526876  0.18287852    -0.82600
O58         O  0.59979745  0.29203326  0.17642226    -0.85300
C59         C  0.63399047  0.28885243  0.18242683     1.02400
O60         O  0.64467105  0.28404875  0.21033037    -0.78100
O61         O  0.62326466  0.21491771  0.23066845    -0.78200
C62         C  0.60291376  0.18823067  0.23902252     1.02400
Cr63       Cr  0.53578706  0.23813265  0.23871286     1.93700
Cr64       Cr  0.56351753  0.30920947  0.20809360     1.98000
Cr65       Cr  0.61709170  0.26507715  0.24845272     1.39100
O66         O  0.57240274  0.27055433  0.23192245    -1.23300
O67         O  0.75309235  0.47487963  0.49752170    -0.85600
O68         O  0.72786260  0.50343929  0.04995656    -0.82600
C69         C  0.69332169  0.50156877  0.04352210     0.97900
O70         O  0.67565773  0.47142454  0.04612348    -0.82600
O71         O  0.66018693  0.39621507  0.04979639    -0.85300
C72         C  0.65903436  0.38700840  0.02141061     1.02400
O73         O  0.68762506  0.39159340  0.00491171    -0.78000
O74         O  0.75648725  0.41620529  0.48455093    -0.78200
C75         C  0.75812274  0.45029923  0.47730307     1.02400
O76         O  0.81128707  0.43081355  0.03170594    -0.85600
O77         O  0.77958750  0.46163650  0.08807881    -0.82600
C78         C  0.75470614  0.47199557  0.10714044     0.97900
O79         O  0.72081149  0.46660784  0.10042114    -0.82600
O80         O  0.71374848  0.39119078  0.09748397    -0.85300
C81         C  0.71467922  0.35837983  0.08730850     1.02400
O82         O  0.71835066  0.35183933  0.05811464    -0.78100
O83         O  0.78822955  0.37485693  0.03763217    -0.78200
C84         C  0.81551893  0.39584100  0.03175635     1.02400
Cr85       Cr  0.76641062  0.46322555  0.04293851     1.93700
Cr86       Cr  0.69549792  0.43112615  0.07154316     1.93200
Cr87       Cr  0.73764082  0.38555568  0.02314670     1.39100
O88         O  0.73382616  0.42623976  0.04603711    -1.23300
O89         O  0.52720427  0.27801637  0.47823615    -0.85600
O90         O  0.49291686  0.24728303  0.02995303    -0.82600
C91         C  0.46703426  0.24183571  0.04923422     0.97900
O92         O  0.43334816  0.23991546  0.04028404    -0.82600
O93         O  0.41058169  0.30739742  0.01745695    -0.85300
C94         C  0.40748748  0.33514714  0.00018137     1.02400
O95         O  0.41634354  0.33695191  0.47209458    -0.78000
O96         O  0.49251038  0.32773407  0.47767306    -0.78200
C97         C  0.52356925  0.31274431  0.48202747     1.02400
O98         O  0.49101335  0.22129371  0.44096800    -0.85600
O99         O  0.45865021  0.19179493  0.49655963    -0.82600
C100        C  0.42424136  0.18457019  0.49374460     0.97900
O101        O  0.40226250  0.20905085  0.48461107    -0.82600
O102        O  0.37518999  0.27593775  0.46360924    -0.85300
C103        C  0.38248900  0.27945256  0.43467182     1.02400
O104        O  0.41582414  0.28064587  0.42529684    -0.78100
O105        O  0.49252205  0.27889663  0.42560105    -0.78200
C106        C  0.50059496  0.24527531  0.42114678     1.02400
Cr107      Cr  0.48885770  0.23761907  0.48539934     1.93700
Cr108      Cr  0.40930206  0.25635432  0.99994150     1.93200
Cr109      Cr  0.45405282  0.30321012  0.45221594     1.39100
O110        O  0.45006697  0.26677845  0.47919231    -1.23300
O111        O  0.29408890  0.50913961  0.30571132    -0.85600
O112        O  0.27789903  0.47391307  0.25143613    -0.82600
C113        C  0.27943899  0.44843182  0.23143738     0.97900
O114        O  0.28059185  0.41486024  0.23965533    -0.82600
O115        O  0.34514642  0.39820854  0.26826581    -0.85300
C116        C  0.37014935  0.39531102  0.28820874     1.02400
O117        O  0.36384522  0.40510818  0.31604247    -0.78000
O118        O  0.34682741  0.47936483  0.31066946    -0.78200
C119        C  0.32951412  0.50857856  0.30459474     1.02400
O120        O  0.23607024  0.46569684  0.33644129    -0.85600
O121        O  0.21769005  0.43234486  0.27755329    -0.82600
C122        C  0.21437305  0.39721389  0.27791950     0.97900
O123        O  0.24014563  0.37778529  0.28859908    -0.82600
O124        O  0.30622426  0.35777410  0.31727541    -0.85300
C125        C  0.30528320  0.36395069  0.34661628     1.02400
O126        O  0.30149600  0.39662112  0.35661842    -0.78100
O127        O  0.29077918  0.47259342  0.35816440    -0.78200
C128        C  0.25572238  0.47595205  0.35929379     1.02400
Cr129      Cr  0.25863907  0.46718278  0.29388972     1.93700
Cr130      Cr  0.29271998  0.39026860  0.28026908     1.93200
Cr131      Cr  0.32317972  0.43816709  0.33307734     1.39100
O132        O  0.29100928  0.43161734  0.30245223    -1.23300
O133        O  0.49116310  0.73379081  0.28451488    -0.85600
O134        O  0.53029602  0.70584070  0.23540165    -0.82600
C135        C  0.53069356  0.67120252  0.24004795     0.97900
O136        O  0.50059877  0.65286816  0.23848999    -0.82600
O137        O  0.42549059  0.63533999  0.23260703    -0.85300
C138        C  0.41332376  0.63537071  0.26012680     1.02400
O139        O  0.41334982  0.66519856  0.27542944    -0.78000
O140        O  0.43095324  0.73644419  0.29355280    -0.78200
C141        C  0.46432707  0.73788620  0.30318608     1.02400
O142        O  0.45459371  0.78667700  0.24720363    -0.85600
O143        O  0.48972725  0.75356375  0.19433448    -0.82600
C144        C  0.50060952  0.72814192  0.17613767     0.97900
O145        O  0.49681976  0.69467818  0.18359622    -0.82600
O146        O  0.42148012  0.68494929  0.18194796    -0.85300
C147        C  0.38767367  0.68570726  0.19002473     1.02400
O148        O  0.37890426  0.69134543  0.21849297    -0.78100
O149        O  0.40069950  0.76194754  0.23556392    -0.78200
C150        C  0.42008120  0.79011061  0.24221409     1.02400
Cr151      Cr  0.48845945  0.74259672  0.23975182     1.93700
Cr152      Cr  0.46048317  0.66994715  0.21114168     1.93200
Cr153      Cr  0.40921870  0.71348164  0.25433260     1.39100
O154        O  0.45256272  0.70888819  0.23518485    -1.23300
O155        O  0.25797415  0.51146891  0.49729366    -0.85600
O156        O  0.29989394  0.47110160  0.04384586    -0.82600
C157        C  0.33419154  0.47268368  0.03605955     0.97900
O158        O  0.35168345  0.50306922  0.03792848    -0.82600
O159        O  0.36592716  0.57844453  0.04387413    -0.85300
C160        C  0.36420838  0.59084629  0.01654855     1.02400
O161        O  0.33376150  0.58928254  0.00220870    -0.78000
O162        O  0.25588266  0.57141110  0.48898046    -0.78200
C163        C  0.25212840  0.53812580  0.47925856     1.02400
O164        O  0.21513399  0.54353556  0.03645422    -0.85600
O165        O  0.25260113  0.51118030  0.08801384    -0.82600
C166        C  0.27915742  0.50152804  0.10522190     0.97900
O167        O  0.31225394  0.50487203  0.09553832    -0.82600
O168        O  0.31830369  0.58044874  0.09661827    -0.85300
C169        C  0.31572272  0.61400252  0.08909155     1.02400
O170        O  0.30886904  0.62256420  0.06092812    -0.78100
O171        O  0.23781000  0.59841925  0.04733432    -0.78200
C172        C  0.21044707  0.57795667  0.04079932     1.02400
Cr173      Cr  0.26083636  0.51145205  0.04194002     1.93700
Cr174      Cr  0.33397869  0.54218531  0.06666246     1.93200
Cr175      Cr  0.28588754  0.59122434  0.02585747     1.39100
O176        O  0.29345790  0.54841461  0.04450953    -1.23300
O177        O  0.99784867  0.20093975  0.23618148    -0.85600
O178        O  0.03728576  0.23098490  0.28340744    -0.82600
C179        C  0.06454572  0.23468625  0.30135096     0.97900
O180        O  0.09785664  0.23465529  0.29080838    -0.82600
O181        O  0.11845792  0.16582465  0.27123602    -0.85300
C182        C  0.11815506  0.13569700  0.25660524     1.02400
O183        O  0.10378082  0.13372113  0.22988035    -0.78000
O184        O  0.02917739  0.14946219  0.23890059    -0.78200
C185        C  0.99920701  0.16672605  0.24275212     1.02400
O186        O  0.03577028  0.24976590  0.19312622    -0.85600
O187        O  0.07159571  0.28507794  0.24519555    -0.82600
C188        C  0.10594072  0.29000278  0.23955364     0.97900
O189        O  0.12540517  0.26287034  0.23129914    -0.82600
O190        O  0.14855919  0.19402474  0.21251691    -0.85300
C191        C  0.13853533  0.18761262  0.18448797     1.02400
O192        O  0.10455457  0.18287141  0.17814930    -0.78100
O193        O  0.02848429  0.19064374  0.18249425    -0.78200
C194        C  0.02390583  0.22417133  0.17539365     1.02400
Cr195      Cr  0.03873175  0.23942803  0.23856747     1.93700
Cr196      Cr  0.11922890  0.21394989  0.25010204     1.93200
Cr197      Cr  0.06710169  0.16731190  0.20928419     1.39100
O198        O  0.07527072  0.20705652  0.23274026    -1.23300
O199        O  0.23230359  0.98110155  0.02345519    -0.85600
O200        O  0.27980399  0.03631149  0.49428976    -0.82600
C201        C  0.25928100  0.04900769  0.47343298     0.97900
O202        O  0.23507651  0.07316681  0.48031878    -0.82600
O203        O  0.18409341  0.10476516  0.01831643    -0.85300
C204        C  0.15645750  0.08308583  0.01827482     1.02400
O205        O  0.15847796  0.05205121  0.03134951    -0.78000
O206        O  0.18937521  0.99070780  0.05901012    -0.78200
C207        C  0.20248223  0.97149727  0.03700153     1.02400
O208        O  0.26381496  0.99963435  0.08310691    -0.85600
O209        O  0.31097202  0.05244429  0.05259914    -0.82600
C210        C  0.31857618  0.08010125  0.03555893     0.97900
O211        O  0.29310843  0.09631245  0.02125712    -0.82600
O212        O  0.23943140  0.12436802  0.06316855    -0.85300
C213        C  0.21250972  0.12273268  0.08255362     1.02400
O214        O  0.18816393  0.09748095  0.08029683    -0.78100
O215        O  0.22352110  0.03815521  0.10373294    -0.78200
C216        C  0.24648522  0.01236484  0.10654046     1.02400
Cr217      Cr  0.26900956  0.01844510  0.03935268     1.93700
Cr218      Cr  0.23825361  0.09515048  0.02279297     1.93200
Cr219      Cr  0.19343318  0.04512664  0.06648518     1.39100
O220        O  0.23383232  0.05286354  0.04308889    -1.23300
O221        O  0.03642371  0.74350523  0.02494116    -0.85600
O222        O  0.00133701  0.77749930  0.47386256    -0.82600
C223        C  0.00392781  0.81217286  0.47926545     0.97900
O224        O  0.03493314  0.82845855  0.47637385    -0.82600
O225        O  0.11130113  0.83973159  0.47290043    -0.85300
C226        C  0.12151614  0.83778184  0.00074488     1.02400
O227        O  0.11721728  0.80989894  0.01772626    -0.78000
O228        O  0.09507149  0.74088929  0.03867341    -0.78200
C229        C  0.06051939  0.73986489  0.04561853     1.02400
O230        O  0.06967748  0.69240262  0.49290083    -0.85600
O231        O  0.04109716  0.72353272  0.43601845    -0.82600
C232        C  0.03164269  0.74809071  0.41681152     0.97900
O233        O  0.03821903  0.78177916  0.42287433    -0.82600
O234        O  0.11487902  0.78436334  0.42593233    -0.85300
C235        C  0.14780528  0.78290807  0.43589235     1.02400
O236        O  0.15377203  0.77989334  0.46508424    -0.78100
O237        O  0.12679365  0.71254102  0.48587954    -0.78200
C238        C  0.10456370  0.68686615  0.49300595     1.02400
Cr239      Cr  0.03946278  0.73777372  0.48122066     1.93700
Cr240      Cr  0.07506577  0.80570870  0.45155532     1.93200
Cr241      Cr  0.12208721  0.75932003  0.99976250     1.39100
O242        O  0.07791958  0.76862532  0.47784645    -1.23300
O243        O  0.24838986  0.97247496  0.24941588    -0.85600
O244        O  0.22564240  0.00399817  0.30268814    -0.82600
C245        C  0.19035253  0.00249066  0.29941104     0.97900
O246        O  0.17342418  0.97216695  0.30329082    -0.82600
O247        O  0.15816673  0.89687727  0.30617855    -0.85300
C248        C  0.15494281  0.88914547  0.27762285     1.02400
O249        O  0.18202142  0.89442323  0.25983896    -0.78000
O250        O  0.24754235  0.91408204  0.23495897    -0.78200
C251        C  0.24742289  0.94823942  0.22849644     1.02400
O252        O  0.30712672  0.93171751  0.27714004    -0.85600
O253        O  0.28099994  0.96242625  0.33605502    -0.82600
C254        C  0.25799076  0.97219368  0.35694747     0.97900
O255        O  0.22356230  0.96644836  0.35353576    -0.82600
O256        O  0.21676932  0.89009972  0.35008672    -0.85300
C257        C  0.21684061  0.85754365  0.33909564     1.02400
O258        O  0.21762711  0.85240524  0.30965363    -0.78100
O259        O  0.28437351  0.87622432  0.28539949    -0.78200
C260        C  0.31066363  0.89659105  0.27629912     1.02400
Cr261      Cr  0.26361343  0.96440358  0.29221161     1.93700
Cr262      Cr  0.19579209  0.93118115  0.32617084     1.93200
Cr263      Cr  0.23289286  0.88714233  0.27429996     1.39100
O264        O  0.23140212  0.92731869  0.29769721    -1.23300
O265        O  0.02413027  0.78194545  0.22742380    -0.85600
O266        O  0.98857441  0.75328500  0.27743532    -0.82600
C267        C  0.96263008  0.74748024  0.29666460     0.97900
O268        O  0.92887114  0.74565439  0.28761642    -0.82600
O269        O  0.90445515  0.81327667  0.26687556    -0.85300
C270        C  0.90194839  0.84191847  0.25068341     1.02400
O271        O  0.91443997  0.84186458  0.22308199    -0.78000
O272        O  0.99035650  0.83207115  0.22944111    -0.78200
C273        C  0.02086902  0.81609874  0.23401429     1.02400
O274        O  0.98742078  0.72762133  0.18788120    -0.85600
O275        O  0.95580660  0.69558330  0.24247572    -0.82600
C276        C  0.92169121  0.68834101  0.23836715     0.97900
O277        O  0.89988521  0.71322907  0.23000201    -0.82600
O278        O  0.87231127  0.78008659  0.21105827    -0.85300
C279        C  0.88049137  0.78462500  0.18236097     1.02400
O280        O  0.91412233  0.78847827  0.17402539    -0.78100
O281        O  0.99097251  0.78587094  0.17435974    -0.78200
C282        C  0.99724342  0.75207868  0.16851987     1.02400
Cr283      Cr  0.98583187  0.74162187  0.23292673     1.93700
Cr284      Cr  0.90460917  0.76354102  0.24741083     1.93200
Cr285      Cr  0.95219835  0.80921032  0.20218323     1.39100
O286        O  0.94734254  0.77132052  0.22766703    -1.23300
O287        O  0.79521425  0.99062637  0.02539737    -0.85600
O288        O  0.74795020  0.94926827  0.49548441    -0.82600
C289        C  0.76636639  0.93227665  0.47455849     0.97900
O290        O  0.78824291  0.90631294  0.48213550    -0.82600
O291        O  0.83874963  0.85889700  0.01667719    -0.85300
C292        C  0.86796222  0.87791537  0.01449491     1.02400
O293        O  0.86822716  0.91002931  0.02612809    -0.78000
O294        O  0.84541337  0.97553703  0.05134660    -0.78200
C295        C  0.82771797  0.99760092  0.03454268     1.02400
O296        O  0.76670896  0.97135654  0.08496360    -0.85600
O297        O  0.71889613  0.91984896  0.05621986    -0.82600
C298        C  0.70852306  0.89380838  0.03850277     0.97900
O299        O  0.73147166  0.87818050  0.02076036    -0.82600
O300        O  0.78352755  0.84667882  0.06214666    -0.85300
C301        C  0.81093365  0.84672926  0.08079388     1.02400
O302        O  0.83619863  0.87149442  0.07941789    -0.78100
O303        O  0.81311038  0.93889999  0.10318089    -0.78200
C304        C  0.78815832  0.96295453  0.10700244     1.02400
Cr305      Cr  0.76003293  0.95290311  0.04121328     1.93700
Cr306      Cr  0.78629485  0.87513220  0.02213808     1.93200
Cr307      Cr  0.83695500  0.92332281  0.06320489     1.39100
O308        O  0.79432790  0.91742055  0.04277445    -1.23300
O309        O  0.99294210  0.22185551  0.03025457    -0.85600
O310        O  0.02745161  0.19513790  0.97985622    -0.82600
C311        C  0.02401218  0.17016102  0.48593189     0.97900
O312        O  0.99392287  0.15292564  0.48088410    -0.82600
O313        O  0.91875583  0.13846371  0.47216091    -0.85300
C314        C  0.90740444  0.12916757  0.99808232     1.02400
O315        O  0.91128279  0.15551366  0.01709109    -0.78000
O316        O  0.93394127  0.22186015  0.04315585    -0.78200
C317        C  0.96812715  0.22418536  0.05062616     1.02400
O318        O  0.95288919  0.28788875  0.49813688    -0.85600
O319        O  0.98747800  0.25769239  0.44192330    -0.82600
C320        C  0.99953021  0.23349143  0.42300427     0.97900
O321        O  0.99401690  0.19971525  0.42866353    -0.82600
O322        O  0.91705595  0.19489117  0.42747221    -0.85300
C323        C  0.88348880  0.19495255  0.43638455     1.02400
O324        O  0.87552157  0.19727811  0.46550162    -0.78100
O325        O  0.89970380  0.25951182  0.99186341    -0.78200
C326        C  0.91758829  0.29109192  0.49960777     1.02400
Cr327      Cr  0.98629870  0.24371331  0.48702273     1.93700
Cr328      Cr  0.95555572  0.17449331  0.45444663     1.93200
Cr329      Cr  0.90843138  0.20733998  0.00260649     1.39100
O330        O  0.94943857  0.21098356  0.48161565    -1.23300
O331        O  0.76853409  0.01008648  0.24657490    -0.85600
O332        O  0.79289912  0.97405344  0.29649246    -0.82600
C333        C  0.82789261  0.97607685  0.29165946     0.97900
O334        O  0.84519321  0.00606219  0.29674445    -0.82600
O335        O  0.85944222  0.08113251  0.30540740    -0.85300
C336        C  0.86192570  0.09296068  0.27797154     1.02400
O337        O  0.83469788  0.08994803  0.26008094    -0.78000
O338        O  0.76795045  0.06943771  0.23538928    -0.78200
C339        C  0.76873753  0.03549295  0.22686304     1.02400
O340        O  0.71053331  0.04692269  0.27978908    -0.85600
O341        O  0.73890067  0.01234018  0.33542872    -0.82600
C342        C  0.76299843  0.00104114  0.35447133     0.97900
O343        O  0.79713327  0.00702637  0.34930072    -0.82600
O344        O  0.80329952  0.08310504  0.35181666    -0.85300
C345        C  0.80320462  0.11651879  0.34354465     1.02400
O346        O  0.80009404  0.12454632  0.31469181    -0.78100
O347        O  0.73242033  0.10214166  0.29101733    -0.78200
C348        C  0.70594297  0.08166355  0.28257304     1.02400
Cr349      Cr  0.75463779  0.01409657  0.29052101     1.93700
Cr350      Cr  0.82337212  0.04473627  0.32371978     1.93200
Cr351      Cr  0.78371844  0.09332832  0.27687187     1.39100
O352        O  0.78678499  0.05098911  0.29705170    -1.23300
C353        C  0.82515064  0.16191089  0.42170727    -0.06000
C354        C  0.85430073  0.18580068  0.41280172    -0.00100
C355        C  0.85859979  0.19427236  0.38065977    -0.08600
C356        C  0.83831287  0.17354858  0.35843351    -0.06000
C357        C  0.81320931  0.14546374  0.36730780    -0.00100
C358        C  0.80409480  0.14200030  0.39947123    -0.08500
C359        C  0.77293871  0.11679196  0.41059213     0.61800
H360        H  0.82090405  0.15636808  0.44625510     0.12500
H361        H  0.84443010  0.17721599  0.33391818     0.12500
C362        C  0.88501461  0.22443706  0.36954965     0.62100
F363        F  0.76170163  0.12581586  0.44062257    -0.23100
F364        F  0.78471996  0.08046838  0.41043451    -0.20400
F365        F  0.74249622  0.12045588  0.39134340    -0.20100
F366        F  0.92122888  0.21176968  0.36924323    -0.20200
F367        F  0.88221153  0.25497094  0.38906059    -0.20500
F368        F  0.87640597  0.23564199  0.33970120    -0.23200
C369        C  0.85619371  0.09814161  0.02645295    -0.06000
C370        C  0.88801485  0.09473327  0.00740171    -0.00100
C371        C  0.89891804  0.05918875  0.99641521    -0.08600
C372        C  0.87834116  0.02817009  0.00620599    -0.06000
C373        C  0.84648893  0.03178112  0.02483880    -0.00100
C374        C  0.83455649  0.06712677  0.03481989    -0.08500
C375        C  0.79940118  0.07192308  0.05429612     0.61800
H376        H  0.84114728  0.13253651  0.52381412     0.12500
H377        H  0.88643546  0.00061977  0.99879518     0.12500
C378        C  0.93184938  0.05355087  0.97448277     0.62100
F379        F  0.78616480  0.06222561  0.56965591    -0.23100
F380        F  0.80201914  0.05192409  0.08149315    -0.20400
F381        F  0.78262315  0.11659683  0.54534124    -0.20100
F382        F  0.96318289  0.07078837  0.98635119    -0.20200
F383        F  0.92393359  0.06801503  0.94558419    -0.20500
F384        F  0.93997701  0.01642193  0.97031651    -0.23200
C385        C  0.77697153  0.94692382  0.38619343    -0.06000
C386        C  0.75416124  0.97783344  0.38192687    -0.00100
C387        C  0.73061171  0.98931701  0.40641556    -0.08600
C388        C  0.73485264  0.97289254  0.43587672    -0.06000
C389        C  0.76082640  0.94428239  0.44132043    -0.00100
C390        C  0.78039131  0.92947673  0.41520568    -0.08500
C391        C  0.80559233  0.89627070  0.41752591     0.61800
H392        H  0.79397899  0.93781760  0.36667499     0.12500
H393        H  0.71820499  0.98321805  0.45509078     0.12500
C394        C  0.70162132  0.01888824  0.40146074     0.62100
F395        F  0.81911779  0.88498978  0.38870015    -0.23100
F396        F  0.78574123  0.86685802  0.43002285    -0.20400
F397        F  0.83579207  0.90519599  0.43601120    -0.20100
F398        F  0.67665570  0.00677833  0.37914163    -0.20200
F399        F  0.71840523  0.05114012  0.39135689    -0.20500
F400        F  0.68191468  0.02678316  0.42851371    -0.23200
C401        C  0.80704669  0.02155444  0.18029535    -0.06000
C402        C  0.77133233  0.02355309  0.19366515    -0.00100
C403        C  0.74133032  0.00508348  0.17856039    -0.08600
C404        C  0.74799162  0.98608969  0.15022687    -0.06000
C405        C  0.78393332  0.98269581  0.13754498    -0.00100
C406        C  0.81418390  0.00064918  0.15292412    -0.08500
C407        C  0.85394637  0.99751437  0.14089597     0.61800
H408        H  0.82982231  0.03479840  0.19260360     0.12500
H409        H  0.72515312  0.97270328  0.13808439     0.12500
C410        C  0.70229531  0.00543505  0.19228961     0.62100
F411        F  0.87850801  0.01903635  0.15813869    -0.23100
F412        F  0.85609530  0.00908386  0.11034058    -0.20400
F413        F  0.86537878  0.96114117  0.14264978    -0.20100
F414        F  0.69009017  0.04142849  0.19416069    -0.20200
F415        F  0.70204828  0.99016359  0.22171134    -0.20500
F416        F  0.67732597  0.98549495  0.17418125    -0.23200
C417        C  0.80213587  0.82563880  0.13496759    -0.06000
C418        C  0.81574723  0.81803111  0.10491291    -0.00100
C419        C  0.84321341  0.79054151  0.10106572    -0.08600
C420        C  0.86086129  0.77647522  0.12755242    -0.06000
C421        C  0.85147839  0.78870480  0.15775411    -0.00100
C422        C  0.81909695  0.81072344  0.16167325    -0.08500
C423        C  0.80406615  0.82080288  0.19361944     0.61800
H424        H  0.78058684  0.84625924  0.13754003     0.12500
H425        H  0.88446256  0.75825628  0.12463077     0.12500
C426        C  0.85573929  0.77828889  0.06893651     0.62100
F427        F  0.77080308  0.83974969  0.19188608    -0.23100
F428        F  0.82950619  0.84309876  0.20901928    -0.20400
F429        F  0.79748716  0.78886455  0.21044040    -0.20100
F430        F  0.87574263  0.80649712  0.05492230    -0.20200
F431        F  0.82482258  0.76952023  0.05122528    -0.20500
F432        F  0.87811876  0.74731461  0.07002455    -0.23200
C433        C  0.89676691  0.91007663  0.25252543    -0.06000
C434        C  0.88344155  0.87567242  0.26308395    -0.00100
C435        C  0.85148101  0.87452834  0.28282523    -0.08600
C436        C  0.83482624  0.90808438  0.29182192    -0.06000
C437        C  0.84840711  0.94247377  0.28154051    -0.00100
C438        C  0.87980587  0.94359379  0.26122469    -0.08500
C439        C  0.89498306  0.97964461  0.24796864     0.61800
H440        H  0.92087785  0.91049916  0.23722159     0.12500
H441        H  0.81083620  0.90771553  0.30725990     0.12500
C442        C  0.83403246  0.83837971  0.29384167     0.62100
F443        F  0.92165197  0.97363950  0.22505452    -0.23100
F444        F  0.91131816  0.00041108  0.27142764    -0.20400
F445        F  0.86647585  0.99950627  0.23480017    -0.20100
F446        F  0.85773168  0.82126256  0.31420532    -0.20200
F447        F  0.82718560  0.81515253  0.26876034    -0.20500
F448        F  0.80049649  0.84392607  0.30924969    -0.23200
C449        C  0.08607172  0.88248885  0.27776523    -0.06000
C450        C  0.12065003  0.87164278  0.26532944    -0.00100
C451        C  0.12203339  0.84286172  0.24260546    -0.08600
C452        C  0.08867817  0.82562596  0.23384415    -0.06000
C453        C  0.05396954  0.83704232  0.24524278    -0.00100
C454        C  0.05239198  0.86603468  0.26773679    -0.08500
C455        C  0.01573724  0.87880190  0.28184235     0.61800
H456        H  0.08566035  0.90433593  0.29514038     0.12500
H457        H  0.08958782  0.80299833  0.21773637     0.12500
C458        C  0.15825213  0.82949235  0.22766179     0.62100
F459        F  0.02111815  0.90381079  0.30604346    -0.23100
F460        F  0.99607826  0.84877449  0.29351083    -0.20400
F461        F  0.99482138  0.89598770  0.25934098    -0.20100
F462        F  0.18363208  0.82036942  0.25031821    -0.20200
F463        F  0.17313797  0.85692905  0.20892887    -0.20500
F464        F  0.15288809  0.79838377  0.20909983    -0.23200
C465        C  0.93725627  0.81088847  0.97637097    -0.06000
C466        C  0.97139030  0.82692855  0.98503672    -0.00100
C467        C  0.96981566  0.86648618  0.50545001    -0.08600
C468        C  0.93540515  0.88266541  0.51333967    -0.06000
C469        C  0.90264009  0.86117823  0.00104879    -0.00100
C470        C  0.90293468  0.82761090  0.98325494    -0.08500
C471        C  0.86780033  0.80884387  0.97108478     0.61800
H472        H  0.93755241  0.78459486  0.96406786     0.12500
H473        H  0.93503947  0.90763934  0.52744178     0.12500
C474        C  0.00556779  0.88427265  0.51746476     0.62100
F475        F  0.87562720  0.78316320  0.94784974    -0.23100
F476        F  0.84447667  0.83468383  0.95846960    -0.20400
F477        F  0.84955808  0.79060264  0.99490537    -0.20100
F478        F  0.02675282  0.89719078  0.49273198    -0.20200
F479        F  0.02572012  0.85866190  0.53402145    -0.20500
F480        F  0.99860155  0.91401820  0.53714856    -0.23200
C481        C  0.17075467  0.77802589  0.38165856    -0.06000
C482        C  0.17813374  0.78926368  0.41248500    -0.00100
C483        C  0.20865233  0.81364010  0.41782298    -0.08600
C484        C  0.22512338  0.83154381  0.39198831    -0.06000
C485        C  0.21158384  0.82638483  0.36156126    -0.00100
C486        C  0.18703977  0.79611114  0.35591420    -0.08500
C487        C  0.17556334  0.78461616  0.32333036     0.61800
H488        H  0.14897912  0.75760068  0.37782746     0.12500
H489        H  0.24667789  0.85211892  0.39563916     0.12500
C490        C  0.22205532  0.82302602  0.45038315     0.62100
F491        F  0.15485161  0.75207643  0.32332457    -0.23100
F492        F  0.20696099  0.77874804  0.30514962    -0.20400
F493        F  0.15410622  0.81194081  0.31039040    -0.20100
F494        F  0.22955124  0.79077703  0.46622379    -0.20200
F495        F  0.19514185  0.84277675  0.46629670    -0.20500
F496        F  0.25433729  0.84428269  0.44982910    -0.23200
C497        C  0.06775388  0.75311161  0.10195806    -0.06000
C498        C  0.04737259  0.73559052  0.07835383    -0.00100
C499        C  0.01332354  0.71708545  0.08624413    -0.08600
C500        C  0.99862161  0.72126220  0.11661571    -0.06000
C501        C  0.01723165  0.74232332  0.13921370    -0.00100
C502        C  0.05333837  0.75651320  0.13237569    -0.08500
C503        C  0.07665040  0.77496435  0.15726066     0.61800
H504        H  0.09422010  0.76596868  0.09603552     0.12500
H505        H  0.97153824  0.70965812  0.12243284     0.12500
C506        C  0.99232154  0.69295500  0.06299184     0.62100
F507        F  0.11273626  0.78191694  0.14715594    -0.23100
F508        F  0.07832349  0.75179694  0.18270921    -0.20400
F509        F  0.06086947  0.80832607  0.16576071    -0.20100
F510        F  0.01691491  0.67021429  0.04709610    -0.20200
F511        F  0.97368217  0.71484329  0.04205471    -0.20500
F512        F  0.96628020  0.67045649  0.07769400    -0.23200
C513        C  0.97715048  0.76057473  0.38397535    -0.06000
C514        C  0.00962854  0.73974859  0.38835508    -0.00100
C515        C  0.02276037  0.71703013  0.36379553    -0.08600
C516        C  0.00458153  0.71829746  0.33476699    -0.06000
C517        C  0.97372103  0.74132976  0.32965526    -0.00100
C518        C  0.95880634  0.76167341  0.35506776    -0.08500
C519        C  0.92512656  0.78608656  0.35127261     0.61800
H520        H  0.96726678  0.77756392  0.40319166     0.12500
H521        H  0.01545159  0.70245551  0.31524591     0.12500
C522        C  0.05686123  0.69317080  0.36781482     0.62100
F523        F  0.91561402  0.80417486  0.37873035    -0.23100
F524        F  0.89499528  0.76456390  0.34222400    -0.20400
F525        F  0.93256630  0.81259298  0.32896690    -0.20100
F526        F  0.06577047  0.67395380  0.34077528    -0.20200
F527        F  0.05019876  0.66768704  0.39111633    -0.20500
F528        F  0.08711662  0.71511305  0.37583279    -0.23200
C529        C  0.17374236  0.91088423  0.05018673    -0.06000
C530        C  0.18203275  0.93748303  0.02744754    -0.00100
C531        C  0.16758061  0.93292203  0.99713181    -0.08600
C532        C  0.14679592  0.90077664  0.99017098    -0.06000
C533        C  0.13998218  0.87274446  0.01229839    -0.00100
C534        C  0.15305597  0.87839266  0.04330734    -0.08500
C535        C  0.14555103  0.85081287  0.06925734     0.61800
H536        H  0.18416712  0.91569701  0.07349923     0.12500
H537        H  0.13640906  0.89706583  0.96675291     0.12500
C538        C  0.17323244  0.96235890  0.97239340     0.62100
F539        F  0.15805540  0.86377142  0.09781162    -0.23100
F540        F  0.17316281  0.81942061  0.55494537    -0.20400
F541        F  0.10765109  0.84425317  0.07206706    -0.20100
F542        F  0.21062064  0.96548133  0.96495285    -0.20200
F543        F  0.16051009  0.99605739  0.98341521    -0.20500
F544        F  0.15411667  0.95395633  0.94531233    -0.23200
C545        C  0.08211085  0.13864286  0.47154335    -0.06000
C546        C  0.05625845  0.13759179  0.99216679    -0.00100
C547        C  0.05811627  0.11805972  0.02066826    -0.08600
C548        C  0.09035454  0.09767142  0.02710936    -0.06000
C549        C  0.12072496  0.09700652  0.00642067    -0.00100
C550        C  0.11246742  0.11569415  0.47773086    -0.08500
C551        C  0.13783110  0.10582523  0.45061954     0.61800
H552        H  0.07794536  0.14857875  0.44805444     0.12500
H553        H  0.09312245  0.08403008  0.04934207     0.12500
C554        C  0.02751949  0.12083181  0.04517163     0.62100
F555        F  0.11666832  0.09265706  0.42603153    -0.23100
F556        F  0.16306477  0.07868595  0.45794173    -0.20400
F557        F  0.15695449  0.13724269  0.44116641    -0.20100
F558        F  0.99429631  0.10748453  0.03343847    -0.20200
F559        F  0.02326586  0.15737313  0.05404012    -0.20500
F560        F  0.03562900  0.10069992  0.07154867    -0.23200
C561        C  0.27158325  0.99406049  0.44121201    -0.06000
C562        C  0.26372818  0.03219864  0.44196351    -0.00100
C563        C  0.26231330  0.05179194  0.41359301    -0.08600
C564        C  0.26453801  0.03148736  0.38536296    -0.06000
C565        C  0.26919859  0.99281899  0.38506210    -0.00100
C566        C  0.27437485  0.97410011  0.41326252    -0.08500
C567        C  0.27786382  0.93243712  0.41408541     0.61800
H568        H  0.27327178  0.97920152  0.46297161     0.12500
H569        H  0.26042898  0.04534273  0.36337413     0.12500
C570        C  0.25903914  0.09356723  0.41308719     0.62100
F571        F  0.29025439  0.92038872  0.44270147    -0.23100
F572        F  0.30285609  0.92050995  0.39153843    -0.20400
F573        F  0.24325482  0.91692037  0.40857076    -0.20100
F574        F  0.28599045  0.10942190  0.43196463    -0.20200
F575        F  0.22427228  0.10384660  0.42373870    -0.20500
F576        F  0.26387153  0.10738311  0.38332064    -0.23200
C577        C  0.28087767  0.96644577  0.18050537    -0.06000
C578        C  0.24680470  0.96094135  0.19614001    -0.00100
C579        C  0.21343791  0.97332798  0.18273493    -0.08600
C580        C  0.21499155  0.98905907  0.15311473    -0.06000
C581        C  0.24886719  0.99436498  0.13716033    -0.00100
C582        C  0.28257706  0.98319282  0.15098870    -0.08500
C583        C  0.32002993  0.99068551  0.13558024     0.61800
H584        H  0.30627948  0.95877336  0.19213526     0.12500
H585        H  0.18947963  0.99791642  0.14224696     0.12500
C586        C  0.17653883  0.97122094  0.20013223     0.62100
F587        F  0.34932276  0.98204440  0.15493501    -0.23100
F588        F  0.32308314  0.02781146  0.12819844    -0.20400
F589        F  0.32338725  0.96957370  0.10872328    -0.20100
F590        F  0.17870729  0.99200572  0.22722143    -0.20200
F591        F  0.16841837  0.93487879  0.20739646    -0.20500
F592        F  0.14742968  0.98475896  0.18272797    -0.23200
C593        C  0.93053983  0.16398229  0.24663528    -0.06000
C594        C  0.96471265  0.14684868  0.25273183    -0.00100
C595        C  0.96460806  0.11176861  0.26766715    -0.08600
C596        C  0.93021058  0.09521541  0.27525148    -0.06000
C597        C  0.89637813  0.11176124  0.26780909    -0.00100
C598        C  0.89626091  0.14693977  0.25351161    -0.08500
C599        C  0.86033815  0.16704677  0.24624088     0.61800
H600        H  0.93072306  0.19091616  0.23589329     0.12500
H601        H  0.92935909  0.06872533  0.28685484     0.12500
C602        C  0.00011076  0.09156471  0.27590543     0.62100
F603        F  0.86696687  0.20244612  0.23521151    -0.23100
F604        F  0.83870825  0.17017989  0.27286441    -0.20400
F605        F  0.84072989  0.14771140  0.22368774    -0.20100
F606        F  0.02323430  0.11459517  0.29312684    -0.20200
F607        F  0.01807729  0.08031479  0.24889257    -0.20500
F608        F  0.99301838  0.06027687  0.29349777    -0.23200
C609        C  0.05087312  0.21667548  0.38750965    -0.06000
C610        C  0.02243355  0.24201396  0.39489501    -0.00100
C611        C  0.01324984  0.26939474  0.37301897    -0.08600
C612        C  0.02973448  0.26755091  0.34310029    -0.06000
C613        C  0.05584511  0.24011797  0.33492462    -0.00100
C614        C  0.06741839  0.21485915  0.35776928    -0.08500
C615        C  0.09440442  0.18397949  0.35003589     0.61800
H616        H  0.05828540  0.19638981  0.40478907     0.12500
H617        H  0.02094860  0.28654571  0.32526766     0.12500
C618        C  0.98533998  0.29936624  0.38076575     0.62100
F619        F  0.10142629  0.16198549  0.37556826    -0.23100
F620        F  0.12791682  0.19888964  0.33994971    -0.20400
F621        F  0.07957229  0.16158902  0.32689756    -0.20100
F622        F  0.99820861  0.32036141  0.40559586    -0.20200
F623        F  0.95144471  0.28360514  0.38866192    -0.20500
F624        F  0.97984541  0.32281124  0.35589693    -0.23200
C625        C  0.02607968  0.24904002  0.12236790    -0.06000
C626        C  0.00510871  0.23203112  0.14572239    -0.00100
C627        C  0.96919646  0.21769073  0.13875664    -0.08600
C628        C  0.95724883  0.21707767  0.10759464    -0.06000
C629        C  0.98018172  0.23018861  0.08344332    -0.00100
C630        C  0.01456609  0.24837526  0.09115211    -0.08500
C631        C  0.04003488  0.26641750  0.06698534     0.61800
H632        H  0.05294303  0.26067695  0.12849286     0.12500
H633        H  0.93058837  0.20470800  0.10175673     0.12500
C634        C  0.94345360  0.20361999  0.16425402     0.62100
F635        F  0.06727084  0.28834081  0.08073949    -0.23100
F636        F  0.01970948  0.28891534  0.04766165    -0.20400
F637        F  0.05784368  0.23946025  0.04948648    -0.20100
F638        F  0.94078490  0.23018278  0.18753518    -0.20200
F639        F  0.95715697  0.17125676  0.17645902    -0.20500
F640        F  0.90792681  0.19640512  0.15329623    -0.23200
C641        C  0.17901968  0.17674342  0.10293383    -0.06000
C642        C  0.20663277  0.15028752  0.10795142    -0.00100
C643        C  0.21719666  0.14283243  0.13911513    -0.08600
C644        C  0.19675706  0.15878596  0.16400227    -0.06000
C645        C  0.16643930  0.18221004  0.15879556    -0.00100
C646        C  0.15953976  0.19368230  0.12778048    -0.08500
C647        C  0.13046722  0.22206995  0.11962051     0.61800
H648        H  0.17069511  0.18238218  0.07920932     0.12500
H649        H  0.20278800  0.15043513  0.18760267     0.12500
C650        C  0.24821669  0.11657812  0.14744305     0.62100
F651        F  0.14468388  0.24589645  0.09731832    -0.23100
F652        F  0.12005262  0.24337505  0.14509196    -0.20400
F653        F  0.09948421  0.20410484  0.10765954    -0.20100
F654        F  0.26785428  0.10414847  0.12167056    -0.20200
F655        F  0.23341009  0.08632646  0.16292576    -0.20500
F656        F  0.27305131  0.13469644  0.16692434    -0.23200
C657        C  0.18975800  0.07007833  0.28952264    -0.06000
C658        C  0.16939467  0.03664639  0.29107121    -0.00100
C659        C  0.13064575  0.03698344  0.28358789    -0.08600
C660        C  0.11515825  0.07002226  0.27242333    -0.06000
C661        C  0.13601729  0.10281614  0.27015936    -0.00100
C662        C  0.17368538  0.10327606  0.27968451    -0.08500
C663        C  0.19730984  0.13838138  0.27865274     0.61800
H664        H  0.21881517  0.07014156  0.29600017     0.12500
H665        H  0.08631631  0.07066679  0.26541957     0.12500
C666        C  0.10516745  0.00331553  0.28732915     0.62100
F667        F  0.23399711  0.13195425  0.28650001    -0.23100
F668        F  0.18329587  0.16416448  0.29950210    -0.20400
F669        F  0.19709064  0.15286195  0.24898090    -0.20100
F670        F  0.10600626  0.99127052  0.31783668    -0.20200
F671        F  0.11630596  0.97516510  0.26741881    -0.20500
F672        F  0.06847070  0.01125878  0.28054107    -0.23200
C673        C  0.16183786  0.59153697  0.00217848    -0.06000
C674        C  0.17472768  0.59606119  0.03294378    -0.00100
C675        C  0.15976958  0.62492182  0.05157766    -0.08600
C676        C  0.13629734  0.65097538  0.03768875    -0.06000
C677        C  0.12660221  0.64872997  0.00604745    -0.00100
C678        C  0.13809722  0.61769929  0.98832810    -0.08500
C679        C  0.12666638  0.61346355  0.95462280     0.61800
H680        H  0.17334639  0.56936548  0.98805739     0.12500
H681        H  0.12152765  0.67909136  0.55222401     0.12500
C682        C  0.16837409  0.62984206  0.08592368     0.62100
F683        F  0.13901607  0.58047075  0.94174746    -0.23100
F684        F  0.14139392  0.64236278  0.93739418    -0.20400
F685        F  0.08241037  0.61834198  0.45343773    -0.20100
F686        F  0.18858909  0.66221629  0.09032664    -0.20200
F687        F  0.18827229  0.60065996  0.09786627    -0.20500
F688        F  0.13532939  0.63222058  0.10257766    -0.23200
C689        C  0.36837271  0.82976567  0.22761478    -0.06000
C690        C  0.40009994  0.82604172  0.24586643    -0.00100
C691        C  0.40639521  0.85215946  0.27034403    -0.08600
C692        C  0.37781714  0.87763608  0.27822682    -0.06000
C693        C  0.34379845  0.87774700  0.26222850    -0.00100
C694        C  0.33993208  0.85451798  0.23536245    -0.08500
C695        C  0.30601271  0.85518960  0.21448241     0.61800
H696        H  0.36488160  0.81090454  0.20808378     0.12500
H697        H  0.38080088  0.89579116  0.29826874     0.12500
C698        C  0.44210033  0.85217553  0.28890809     0.62100
F699        F  0.30891363  0.83083514  0.18949946    -0.23100
F700        F  0.30266286  0.89016696  0.20239295    -0.20400
F701        F  0.27429110  0.84540935  0.23095775    -0.20100
F702        F  0.47227529  0.85601757  0.26893211    -0.20200
F703        F  0.44495653  0.81941607  0.30502186    -0.20500
F704        F  0.44338605  0.88107580  0.31027099    -0.23200
C705        C  0.36609926  0.68902853  0.13523762    -0.06000
C706        C  0.35934980  0.67642457  0.16575259    -0.00100
C707        C  0.33038062  0.65005573  0.17066061    -0.08600
C708        C  0.31354506  0.63322121  0.14451289    -0.06000
C709        C  0.32410203  0.64217334  0.11383925    -0.00100
C710        C  0.34838849  0.67285172  0.10910856    -0.08500
C711        C  0.35731069  0.68718155  0.07676908     0.61800
H712        H  0.38731236  0.71016318  0.13183404     0.12500
H713        H  0.29383729  0.61070061  0.14783661     0.12500
C714        C  0.31909952  0.63740537  0.20302523     0.62100
F715        F  0.37960852  0.71865388  0.07775447    -0.23100
F716        F  0.32462619  0.69620564  0.06188594    -0.20400
F717        F  0.37586449  0.66044239  0.05969115    -0.20100
F718        F  0.28948765  0.61258234  0.20232336    -0.20200
F719        F  0.30839913  0.66757856  0.22087741    -0.20500
F720        F  0.34865651  0.62008867  0.21692309    -0.23200
C721        C  0.14778487  0.37575069  0.27948586    -0.06000
C722        C  0.18191156  0.37763371  0.26342364    -0.00100
C723        C  0.18608827  0.35664446  0.23540865    -0.08600
C724        C  0.15782504  0.33181150  0.22649439    -0.06000
C725        C  0.12578755  0.32619477  0.24461996    -0.00100
C726        C  0.11931233  0.35044766  0.27041054    -0.08500
C727        C  0.08380465  0.34824846  0.28946322     0.61800
H728        H  0.14459061  0.39242945  0.30039814     0.12500
H729        H  0.16172770  0.31439462  0.20608822     0.12500
C730        C  0.22028871  0.35988002  0.21472383     0.62100
F731        F  0.08211091  0.37588696  0.31195849    -0.23100
F732        F  0.08201415  0.31461015  0.30429918    -0.20400
F733        F  0.05338166  0.35195467  0.27020528    -0.20100
F734        F  0.25152664  0.34925033  0.23082886    -0.20200
F735        F  0.22376809  0.39601991  0.20493334    -0.20500
F736        F  0.21794256  0.33769866  0.18832293    -0.23200
C737        C  0.37030017  0.60603830  0.29822521    -0.06000
C738        C  0.39537051  0.60146003  0.27314347    -0.00100
C739        C  0.39998511  0.56547901  0.25984934    -0.08600
C740        C  0.37775338  0.53626888  0.27116683    -0.06000
C741        C  0.35141052  0.54147098  0.29498577    -0.00100
C742        C  0.34818734  0.57661814  0.30939291    -0.08500
C743        C  0.32166203  0.58307339  0.33640832     0.61800
H744        H  0.36694770  0.63334066  0.30838717     0.12500
H745        H  0.37995041  0.50897997  0.26075991     0.12500
C746        C  0.42776664  0.55729941  0.23377012     0.62100
F747        F  0.32634933  0.61790254  0.34962220    -0.23100
F748        F  0.32777046  0.55714340  0.35931458    -0.20400
F749        F  0.28547246  0.58007683  0.32591813    -0.20100
F750        F  0.46242278  0.57164615  0.24133012    -0.20200
F751        F  0.41571134  0.57252594  0.20620052    -0.20500
F752        F  0.43187542  0.51965747  0.22872262    -0.23200
C753        C  0.25077194  0.48502549  0.18961136    -0.06000
C754        C  0.27722625  0.45844555  0.19808928    -0.00100
C755        C  0.30107304  0.44330242  0.17502690    -0.08600
C756        C  0.29864203  0.45661082  0.14447341    -0.06000
C757        C  0.27353337  0.48453381  0.13625374    -0.00100
C758        C  0.24829049  0.49827637  0.15890996    -0.08500
C759        C  0.21994776  0.52763164  0.15109959     0.61800
H760        H  0.23225499  0.49572903  0.20749610     0.12500
H761        H  0.31738060  0.44599013  0.12670837     0.12500
C762        C  0.33036941  0.41483846  0.18281134     0.62100
F763        F  0.19898893  0.53795576  0.17688870    -0.23100
F764        F  0.19578303  0.51404171  0.12873059    -0.20400
F765        F  0.23795901  0.55887251  0.13991219    -0.20100
F766        F  0.31334876  0.38217803  0.19196636    -0.20200
F767        F  0.35260796  0.42820206  0.20658763    -0.20500
F768        F  0.35321006  0.40693192  0.15753611    -0.23200
C769        C  0.22489753  0.49278768  0.44189728    -0.06000
C770        C  0.24062847  0.52828476  0.44669608    -0.00100
C771        C  0.24742537  0.55047649  0.42015552    -0.08600
C772        C  0.24820606  0.53293528  0.39063272    -0.06000
C773        C  0.23954115  0.49514254  0.38683593    -0.00100
C774        C  0.22343940  0.47607657  0.41225014    -0.08500
C775        C  0.20413843  0.43876591  0.40963933     0.61800
H776        H  0.21517730  0.47703922  0.46180833     0.12500
H777        H  0.25735527  0.54817224  0.37046005     0.12500
C778        C  0.25377323  0.59186899  0.42266042     0.62100
F779        F  0.21769359  0.41529622  0.43203811    -0.23100
F780        F  0.20855109  0.42233050  0.38071801    -0.20400
F781        F  0.16646057  0.44342061  0.41503724    -0.20100
F782        F  0.28647397  0.59919905  0.43809522    -0.20200
F783        F  0.22445327  0.60779237  0.43882582    -0.20500
F784        F  0.25599600  0.60826406  0.39364978    -0.23200
C785        C  0.40572888  0.13881642  0.03634034    -0.06000
C786        C  0.40973818  0.14422261  0.00399858    -0.00100
C787        C  0.39486324  0.12093667  0.48783945    -0.08600
C788        C  0.36866317  0.09569031  0.50039209    -0.06000
C789        C  0.35690869  0.09288171  0.02760399    -0.00100
C790        C  0.37929203  0.11338853  0.04854564    -0.08500
C791        C  0.37336617  0.11007964  0.08333500     0.61800
H792        H  0.42077183  0.15718293  0.05197815     0.12500
H793        H  0.35617078  0.07482716  0.48537818     0.12500
C794        C  0.40740323  0.11774035  0.45413952     0.62100
F795        F  0.39909958  0.13100652  0.09986409    -0.23100
F796        F  0.37704994  0.07345399  0.09185306    -0.20400
F797        F  0.33808130  0.12202976  0.09133772    -0.20100
F798        F  0.44585212  0.11603262  0.45283442    -0.20200
F799        F  0.39580372  0.14827346  0.43770189    -0.20500
F800        F  0.39303783  0.08626772  0.43985138    -0.23200
C801        C  0.32578944  0.31430399  0.42267266    -0.06000
C802        C  0.35274695  0.28918401  0.41234428    -0.00100
C803        C  0.35599771  0.28185808  0.37998817    -0.08600
C804        C  0.33770651  0.30507141  0.35890657    -0.06000
C805        C  0.31472022  0.33410120  0.36925412    -0.00100
C806        C  0.30626116  0.33655662  0.40168569    -0.08500
C807        C  0.27727654  0.36275527  0.41454507     0.61800
H808        H  0.32254750  0.31907004  0.44749862     0.12500
H809        H  0.34299927  0.30148861  0.33421409     0.12500
C810        C  0.37961617  0.25076158  0.36707097     0.62100
F811        F  0.26683435  0.35358982  0.44466805    -0.23100
F812        F  0.24587862  0.36058844  0.39616627    -0.20400
F813        F  0.29112606  0.39861481  0.41509919    -0.20100
F814        F  0.38641299  0.22434503  0.38942023    -0.20200
F815        F  0.41310056  0.26498558  0.35618148    -0.20500
F816        F  0.36119282  0.23325908  0.34279826    -0.23200
C817        C  0.39067848  0.40565524  0.49351761    -0.06000
C818        C  0.38958788  0.37012386  0.01150950    -0.00100
C819        C  0.36193923  0.37131425  0.03545747    -0.08600
C820        C  0.34486616  0.40541732  0.04261211    -0.06000
C821        C  0.35419908  0.43822108  0.02690361    -0.00100
C822        C  0.38172751  0.43712691  0.00301733    -0.08500
C823        C  0.37909349  0.47269325  0.48032891     0.61800
H824        H  0.41089263  0.40524533  0.47468256     0.12500
H825        H  0.32395443  0.40682027  0.06088405     0.12500
C826        C  0.34937639  0.33688877  0.05293343     0.62100
F827        F  0.40039262  0.46431407  0.45422741    -0.23100
F828        F  0.39815118  0.49922889  0.49746094    -0.20400
F829        F  0.34577867  0.48717020  0.47023731    -0.20100
F830        F  0.32033971  0.34415659  0.07343236    -0.20200
F831        F  0.37859740  0.32328905  0.07010144    -0.20500
F832        F  0.33716241  0.31015314  0.03202080    -0.23200
C833        C  0.89643152  0.35706870  0.49441182    -0.06000
C834        C  0.90469017  0.32173741  0.00859202    -0.00100
C835        C  0.89395258  0.32854588  0.04013583    -0.08600
C836        C  0.86784714  0.35638227  0.04715255    -0.06000
C837        C  0.85187773  0.37785833  0.02396298    -0.00100
C838        C  0.86557929  0.37397135  0.99283886    -0.08500
C839        C  0.86904169  0.41970368  0.48202793     0.61800
H840        H  0.91239787  0.35830358  0.47293894     0.12500
H841        H  0.85712003  0.35937397  0.07069497     0.12500
C842        C  0.90677306  0.30418298  0.06626583     0.62100
F843        F  0.89563371  0.41930420  0.45850978    -0.23100
F844        F  0.87482746  0.45118608  0.49995226    -0.20400
F845        F  0.81552642  0.38070476  0.95827627    -0.20100
F846        F  0.94488299  0.30016048  0.06443935    -0.20200
F847        F  0.88905329  0.27022048  0.06392588    -0.20500
F848        F  0.89842291  0.31908752  0.09528115    -0.23200
C849        C  0.59075914  0.37592738  0.02423035    -0.06000
C850        C  0.62469775  0.36901981  0.00867934    -0.00100
C851        C  0.62525708  0.34276067  0.98372792    -0.08600
C852        C  0.59078427  0.32636269  0.47663951    -0.06000
C853        C  0.55843716  0.33069838  0.99179448    -0.00100
C854        C  0.55755244  0.35714477  0.01634858    -0.08500
C855        C  0.52225486  0.36424234  0.03519810     0.61800
H856        H  0.59054418  0.39592252  0.04315943     0.12500
H857        H  0.59142581  0.30360293  0.46006213     0.12500
C858        C  0.66046283  0.33219204  0.46995601     0.62100
F859        F  0.52858514  0.38816595  0.06000612    -0.23100
F860        F  0.50863561  0.33124743  0.04708407    -0.20400
F861        F  0.49397990  0.39067609  0.50719354    -0.20100
F862        F  0.68743414  0.32092130  0.98646250    -0.20200
F863        F  0.67567650  0.35980536  0.45155227    -0.20500
F864        F  0.65565017  0.30104326  0.45135306    -0.23200
C865        C  0.67079219  0.10843112  0.23919573    -0.06000
C866        C  0.67191842  0.10025706  0.27113115    -0.00100
C867        C  0.64555774  0.11678655  0.29138621    -0.08600
C868        C  0.62021689  0.14263961  0.27921132    -0.06000
C869        C  0.62117240  0.15290029  0.24759928    -0.00100
C870        C  0.64540410  0.13399229  0.22694846    -0.08500
C871        C  0.64453340  0.14107737  0.19217370     0.61800
H872        H  0.69216048  0.09705716  0.22420912     0.12500
H873        H  0.60163635  0.15737586  0.29486712     0.12500
C874        C  0.64586847  0.10862600  0.32593757     0.62100
F875        F  0.66626541  0.11606271  0.17575207    -0.23100
F876        F  0.65762001  0.17633364  0.18583715    -0.20400
F877        F  0.60832232  0.13755263  0.18167481    -0.20100
F878        F  0.67823764  0.12258021  0.33897807    -0.20200
F879        F  0.64428561  0.07075112  0.33039932    -0.20500
F880        F  0.61580677  0.12436577  0.34128272    -0.23200
C881        C  0.40263054  0.33643841  0.28116836    -0.06000
C882        C  0.40424499  0.37508280  0.27967658    -0.00100
C883        C  0.43640840  0.39269009  0.26784405    -0.08600
C884        C  0.46598412  0.37065358  0.25695131    -0.06000
C885        C  0.46448062  0.33153762  0.25767389    -0.00100
C886        C  0.43222270  0.31407581  0.27077183    -0.08500
C887        C  0.42848260  0.27234904  0.27445814     0.61800
H888        H  0.37730266  0.32385264  0.29009829     0.12500
H889        H  0.49025576  0.38413878  0.24704758     0.12500
C890        C  0.43880157  0.43451699  0.26611675     0.62100
F891        F  0.39599037  0.26247142  0.28993070    -0.23100
F892        F  0.45801180  0.25920300  0.29148876    -0.20400
F893        F  0.42762826  0.25518069  0.24563209    -0.20100
F894        F  0.43343813  0.44971289  0.29547419    -0.20200
F895        F  0.41151368  0.44712770  0.24645609    -0.20500
F896        F  0.47304310  0.44658499  0.25492427    -0.23200
C897        C  0.53367292  0.20876204  0.34268570    -0.06000
C898        C  0.55805754  0.23777376  0.33424583    -0.00100
C899        C  0.56888457  0.26431190  0.35680920    -0.08600
C900        C  0.55204073  0.26293537  0.38635649    -0.06000
C901        C  0.52419119  0.23665612  0.39362645    -0.00100
C902        C  0.51655500  0.20756102  0.37232280    -0.08500
C903        C  0.48912444  0.17680202  0.38008096     0.61800
H904        H  0.52627917  0.18836922  0.32508801     0.12500
H905        H  0.55849925  0.28427829  0.40341618     0.12500
C906        C  0.59526333  0.29593613  0.34887127     0.62100
F907        F  0.48568365  0.15147764  0.35585463    -0.23100
F908        F  0.45443408  0.19152761  0.38611533    -0.20400
F909        F  0.50113922  0.15805098  0.40604348    -0.20100
F910        F  0.60159861  0.31912490  0.37417125    -0.20200
F911        F  0.58009905  0.31678643  0.32542621    -0.20500
F912        F  0.62915687  0.28204173  0.33904858    -0.23200
C913        C  0.51881191  0.21999039  0.12415083    -0.06000
C914        C  0.50036442  0.24319189  0.14535481    -0.00100
C915        C  0.46749400  0.26158544  0.13583949    -0.08600
C916        C  0.45612872  0.25843535  0.10460024    -0.06000
C917        C  0.47678878  0.23826084  0.08264562    -0.00100
C918        C  0.50780969  0.21733205  0.09276236    -0.08500
C919        C  0.52968744  0.19254162  0.07064225     0.61800
H920        H  0.54359788  0.20594065  0.13183095     0.12500
H921        H  0.43216056  0.27360165  0.09666118     0.12500
C922        C  0.44419489  0.28433492  0.15847131     0.62100
F923        F  0.55353199  0.16956326  0.08652250    -0.23100
F924        F  0.55095878  0.21387088  0.05054365    -0.20400
F925        F  0.50549649  0.17034946  0.05369446    -0.20100
F926        F  0.46268947  0.31673457  0.16643515    -0.20200
F927        F  0.43714653  0.26393357  0.18494986    -0.20500
F928        F  0.41024473  0.29381824  0.14584520    -0.23200
C929        C  0.67810827  0.30276072  0.10232418    -0.06000
C930        C  0.70599119  0.32871518  0.11004007    -0.00100
C931        C  0.71626845  0.33292106  0.14171710    -0.08600
C932        C  0.69343042  0.31722370  0.16487114    -0.06000
C933        C  0.66191991  0.29580422  0.15728299    -0.00100
C934        C  0.65615849  0.28556517  0.12562183    -0.08500
C935        C  0.62675989  0.25719640  0.11631766     0.61800
H936        H  0.67101501  0.29879010  0.07802747     0.12500
H937        H  0.69916087  0.32367333  0.18909575     0.12500
C938        C  0.74976402  0.35559212  0.15211312     0.62100
F939        F  0.63214233  0.24488956  0.08599387    -0.23100
F940        F  0.59169716  0.27247342  0.11843258    -0.20400
F941        F  0.62858672  0.22680943  0.13566043    -0.20100
F942        F  0.73786017  0.38802096  0.16618687    -0.20200
F943        F  0.77340612  0.36420377  0.12756504    -0.20500
F944        F  0.76995122  0.33557095  0.17340784    -0.23200
C945        C  0.86036773  0.60340825  0.24378289    -0.06000
C946        C  0.85451657  0.60272004  0.27620596    -0.00100
C947        C  0.87713527  0.62477417  0.29585184    -0.08600
C948        C  0.90306488  0.64923129  0.28211724    -0.06000
C949        C  0.90526511  0.65339762  0.24962601    -0.00100
C950        C  0.88482171  0.62927671  0.23002569    -0.08500
C951        C  0.88767093  0.63213669  0.19486032     0.61800
H952        H  0.84293707  0.58605041  0.22910424     0.12500
H953        H  0.91911151  0.66795459  0.29673320     0.12500
C954        C  0.87281494  0.62339633  0.33097844     0.62100
F955        F  0.86904390  0.60328572  0.18008700    -0.23100
F956        F  0.92468763  0.63107791  0.18577236    -0.20400
F957        F  0.87237945  0.66506384  0.18518696    -0.20100
F958        F  0.87519596  0.58712016  0.34079720    -0.20200
F959        F  0.83860438  0.63746754  0.33976218    -0.20500
F960        F  0.90027529  0.64390518  0.34587555    -0.23200
C961        C  0.67422774  0.37899359  0.25811411    -0.06000
C962        C  0.63582918  0.37756662  0.26368071    -0.00100
C963        C  0.61751615  0.40902554  0.27584020    -0.08600
C964        C  0.63899845  0.44037729  0.28401919    -0.06000
C965        C  0.67779201  0.44200123  0.27877601    -0.00100
C966        C  0.69553597  0.41107222  0.26434079    -0.08500
C967        C  0.73590640  0.41216334  0.25340723     0.61800
H968        H  0.68719596  0.35490182  0.24763616     0.12500
H969        H  0.62535637  0.46412884  0.29437690     0.12500
C970        C  0.57549908  0.40965568  0.27959046     0.62100
F971        F  0.74512104  0.38113077  0.23593423    -0.23100
F972        F  0.75954278  0.41364859  0.27859739    -0.20400
F973        F  0.74178232  0.44272793  0.23479123    -0.20100
F974        F  0.56405314  0.38193333  0.29954823    -0.20200
F975        F  0.55908833  0.40416145  0.25089780    -0.20500
F976        F  0.56314202  0.44312383  0.29155397    -0.23200
C977        C  0.63402347  0.64659453  0.24822565    -0.06000
C978        C  0.63103497  0.60997343  0.25841988    -0.00100
C979        C  0.59568868  0.59261175  0.26010994    -0.08600
C980        C  0.56404347  0.61353328  0.25326207    -0.06000
C981        C  0.56643151  0.65140752  0.24559723    -0.00100
C982        C  0.60243506  0.66831756  0.24285612    -0.08500
C983        C  0.60834245  0.70917169  0.23561634     0.61800
H984        H  0.66157716  0.65898514  0.24699581     0.12500
H985        H  0.53689994  0.60041264  0.25496775     0.12500
C986        C  0.59136166  0.55208308  0.26881913     0.62100
F987        F  0.64572651  0.71889955  0.23439957    -0.23100
F988        F  0.59192284  0.73063835  0.25865941    -0.20400
F989        F  0.59322527  0.71736258  0.20700721    -0.20100
F990        F  0.59839094  0.54762428  0.30017067    -0.20200
F991        F  0.61600700  0.53088059  0.25152893    -0.20500
F992        F  0.55574161  0.53886948  0.26302639    -0.23200
C993        C  0.79696561  0.51121292  0.18295106    -0.06000
C994        C  0.76674539  0.53238183  0.19390298    -0.00100
C995        C  0.73505674  0.53604056  0.17518438    -0.08600
C996        C  0.73366585  0.51672381  0.14690938    -0.06000
C997        C  0.76273231  0.49395734  0.13611157    -0.00100
C998        C  0.79577776  0.49214070  0.15397376    -0.08500
C999        C  0.82858959  0.46884511  0.14361898     0.61800
H1000       H  0.82072296  0.50828035  0.19805587     0.12500
H1001       H  0.70857625  0.51789580  0.13377694     0.12500
C1002       C  0.70142712  0.55781569  0.18621454     0.62100
F1003       F  0.85708245  0.46987094  0.16517693    -0.23100
F1004       F  0.84268301  0.48200909  0.11572074    -0.20400
F1005       F  0.81732519  0.43237678  0.13985631    -0.20100
F1006       F  0.68664699  0.54155427  0.21265266    -0.20200
F1007       F  0.67365467  0.55875562  0.16407361    -0.20500
F1008       F  0.71203265  0.59393504  0.19273966    -0.23200
C1009       C  0.78239372  0.50905571  0.40665112    -0.06000
C1010       C  0.76647171  0.48742802  0.38314179    -0.00100
C1011       C  0.75389335  0.45099841  0.38965243    -0.08600
C1012       C  0.75370737  0.43889231  0.42062249    -0.06000
C1013       C  0.76570993  0.46212444  0.44489186    -0.00100
C1014       C  0.78274835  0.49693916  0.43762816    -0.08500
C1015       C  0.80011030  0.52231109  0.46207974     0.61800
H1016       H  0.79218748  0.53668420  0.40095342     0.12500
H1017       H  0.74212421  0.41194694  0.42624414     0.12500
C1018       C  0.74070785  0.42509535  0.36396587     0.62100
F1019       F  0.82346739  0.54851382  0.44862857    -0.23100
F1020       F  0.82123179  0.50209705  0.48253347    -0.20400
F1021       F  0.77246577  0.54081434  0.47832603    -0.20100
F1022       F  0.76768673  0.42337360  0.34088678    -0.20200
F1023       F  0.70785322  0.43771116  0.35155099    -0.20500
F1024       F  0.73443168  0.38953194  0.37474040    -0.23200
C1025       C  0.62662668  0.85618010  0.49349169    -0.06000
C1026       C  0.62435905  0.81948673  0.01875442    -0.00100
C1027       C  0.64059950  0.82026255  0.04900210    -0.08600
C1028       C  0.66264710  0.85075441  0.05794931    -0.06000
C1029       C  0.67023451  0.87938243  0.03734862    -0.00100
C1030       C  0.65014690  0.88596469  0.50210265    -0.08500
C1031       C  0.66011396  0.91459011  0.47793248     0.61800
H1032       H  0.61713827  0.85360178  0.46964984     0.12500
H1033       H  0.67817934  0.85013158  0.07948764     0.12500
C1034       C  0.63616048  0.78864343  0.07156205     0.62100
F1035       F  0.63031960  0.92046926  0.45834901    -0.23100
F1036       F  0.68992984  0.90226882  0.46034786    -0.20400
F1037       F  0.66907072  0.94805010  0.49204091    -0.20100
F1038       F  0.65104063  0.75681281  0.05872907    -0.20200
F1039       F  0.59884802  0.78390666  0.07808014    -0.20500
F1040       F  0.65404817  0.79539026  0.09954435    -0.23200
C1041       C  0.43190613  0.65738251  0.97550343    -0.06000
C1042       C  0.46587895  0.64563673  0.98775481    -0.00100
C1043       C  0.46629966  0.61517235  0.00834860    -0.08600
C1044       C  0.43262455  0.59682073  0.01509150    -0.06000
C1045       C  0.39834860  0.60864753  0.00323824    -0.00100
C1046       C  0.39792811  0.63969986  0.98308641    -0.08500
C1047       C  0.36210954  0.65472383  0.96994603     0.61800
H1048       H  0.43222843  0.68085621  0.95996647     0.12500
H1049       H  0.43276978  0.57329994  0.03057273     0.12500
C1050       C  0.48862356  0.63064659  0.54505108     0.62100
F1051       F  0.36800781  0.68660352  0.95282929    -0.23100
F1052       F  0.33743210  0.66312108  0.99382078    -0.20400
F1053       F  0.35725096  0.59417020  0.44704630    -0.20100
F1054       F  0.51862051  0.63363061  0.03858713    -0.20200
F1055       F  0.52170104  0.61822030  0.53241965    -0.20500
F1056       F  0.48041910  0.60899216  0.57071941    -0.23200
C1057       C  0.51881641  0.75324777  0.09251119    -0.06000
C1058       C  0.54562179  0.72633204  0.08492750    -0.00100
C1059       C  0.56200395  0.70529723  0.10872692    -0.08600
C1060       C  0.54892772  0.71029794  0.13917364    -0.06000
C1061       C  0.51995979  0.73491210  0.14643211    -0.00100
C1062       C  0.50592709  0.75828023  0.12324760    -0.08500
C1063       C  0.47705643  0.78743962  0.13079449     0.61800
H1064       H  0.50781414  0.77010676  0.07402671     0.12500
H1065       H  0.55968004  0.69308167  0.15751178     0.12500
C1066       C  0.59118602  0.67594401  0.10203082     0.62100
F1067       F  0.49117439  0.81182154  0.15285113    -0.23100
F1068       F  0.44501728  0.77084080  0.14236444    -0.20400
F1069       F  0.46767021  0.80762453  0.10477089    -0.20100
F1070       F  0.62376009  0.69238058  0.09148163    -0.20200
F1071       F  0.57802707  0.65134741  0.07978386    -0.20500
F1072       F  0.59972492  0.65584157  0.12832243    -0.23200
C1073       C  0.46935561  0.73246840  0.39152563    -0.06000
C1074       C  0.50424860  0.74930556  0.39652837    -0.00100
C1075       C  0.52230415  0.76803880  0.37197184    -0.08600
C1076       C  0.50642331  0.76611678  0.34215933    -0.06000
C1077       C  0.47346887  0.74572184  0.33631153    -0.00100
C1078       C  0.45341483  0.73030401  0.36171728    -0.08500
C1079       C  0.41703827  0.70923993  0.35733949     0.61800
H1080       H  0.45602895  0.71847758  0.41092769     0.12500
H1081       H  0.52082443  0.77894700  0.32272728     0.12500
C1082       C  0.55913036  0.78800012  0.37698566     0.62100
F1083       F  0.40276528  0.69637620  0.38527819    -0.23100
F1084       F  0.42276932  0.67903209  0.33800181    -0.20400
F1085       F  0.39072316  0.73216397  0.34450816    -0.20100
F1086       F  0.58556411  0.76331070  0.38703979    -0.20200
F1087       F  0.55458722  0.81548381  0.39926991    -0.20500
F1088       F  0.57229880  0.80428349  0.34992190    -0.23200
C1089       C  0.66212443  0.69643533  0.38362595    -0.06000
C1090       C  0.66856359  0.68705691  0.41481093    -0.00100
C1091       C  0.69865488  0.66298035  0.42116235    -0.08600
C1092       C  0.71549422  0.64347108  0.39615278    -0.06000
C1093       C  0.70500409  0.64892779  0.36505414    -0.00100
C1094       C  0.68035964  0.67847054  0.35858985    -0.08500
C1095       C  0.67044591  0.68897824  0.32564065     0.61800
H1096       H  0.64046710  0.71619531  0.37889637     0.12500
H1097       H  0.73565175  0.62214722  0.40088765     0.12500
C1098       C  0.71181087  0.65609345  0.45401035     0.62100
F1099       F  0.64716931  0.71931359  0.32475737    -0.23100
F1100       F  0.65226159  0.65960656  0.31169668    -0.20400
F1101       F  0.70240007  0.69779001  0.30899864    -0.20100
F1102       F  0.68463297  0.63718781  0.47032322    -0.20200
F1103       F  0.71946494  0.68950282  0.46871318    -0.20500
F1104       F  0.74393947  0.63519902  0.45440360    -0.23200
C1105       C  0.64496447  0.59445355  0.04054395    -0.06000
C1106       C  0.63187847  0.59474761  0.00970278    -0.00100
C1107       C  0.63923435  0.56354904  0.99001336    -0.08600
C1108       C  0.65974931  0.53391831  0.00214529    -0.06000
C1109       C  0.67322492  0.53446940  0.03266687    -0.00100
C1110       C  0.66532748  0.56487730  0.05235300    -0.08500
C1111       C  0.67668261  0.56517370  0.08616736     0.61800
H1112       H  0.63944419  0.61792076  0.05562863     0.12500
H1113       H  0.66588376  0.50993877  0.98773892     0.12500
C1114       C  0.62600576  0.56090632  0.95646575     0.62100
F1115       F  0.66581738  0.59714249  0.10164430    -0.23100
F1116       F  0.71497494  0.56269927  0.08824181    -0.20400
F1117       F  0.65982067  0.53535369  0.10071157    -0.20100
F1118       F  0.59755290  0.57311069  0.44973540    -0.20200
F1119       F  0.58779238  0.56512730  0.95550547    -0.20500
F1120       F  0.63426319  0.52698500  0.94295236    -0.23200
O1121       O  0.49903912  0.70180937  0.97746840    -0.85600
O1122       O  0.52692207  0.72907176  0.53268968    -0.82600
C1123       C  0.55246428  0.72895448  0.55244515     0.97900
O1124       O  0.58638588  0.72907271  0.54417764    -0.82600
O1125       O  0.60743377  0.66416401  0.51909909    -0.85300
C1126       C  0.60966915  0.63681491  0.50111814     1.02400
O1127       O  0.60538568  0.63454144  0.97113993    -0.78000
O1128       O  0.53004885  0.64973753  0.97467157    -0.78200
C1129       C  0.50009817  0.66675556  0.97974245     1.02400
O1130       O  0.54264320  0.75810177  0.94554108    -0.85600
O1131       O  0.57245466  0.78088220  0.00443957    -0.82600
C1132       C  0.60756777  0.78521273  0.00533532     0.97900
O1133       O  0.62889723  0.75964700  0.99643797    -0.82600
O1134       O  0.65208045  0.69282834  0.96968823    -0.85300
C1135       C  0.64695726  0.69190280  0.94038966     1.02400
O1136       O  0.61443285  0.69451929  0.92966683    -0.78100
O1137       O  0.53813848  0.70188741  0.92633769    -0.78200
C1138       C  0.53295630  0.73621411  0.92391856     1.02400
Cr1139     Cr  0.53963904  0.73857095  0.98885595     1.93700
Cr1140     Cr  0.61206899  0.71529158  0.50409368     1.93200
Cr1141     Cr  0.57223807  0.67288941  0.95265877     1.39100
O1142       O  0.57660818  0.70687414  0.98222354    -1.23300
O1143       O  0.73154618  0.46929320  0.79550601    -0.85600
O1144       O  0.75568408  0.50969306  0.74608973    -0.82600
C1145       C  0.75870908  0.53696323  0.72825075     0.97900
O1146       O  0.75963851  0.56991127  0.73874147    -0.82600
O1147       O  0.68973144  0.58750334  0.75956114    -0.85300
C1148       C  0.65999355  0.58533165  0.77507222     1.02400
O1149       O  0.66001837  0.57165037  0.80203258    -0.78000
O1150       O  0.67822713  0.49781616  0.79485489    -0.78200
C1151       C  0.69679848  0.46867465  0.79053716     1.02400
O1152       O  0.78212686  0.51087896  0.83470363    -0.85600
O1153       O  0.81126638  0.54627285  0.78092132    -0.82600
C1154       C  0.81567884  0.58032490  0.78714476     0.97900
O1155       O  0.78868340  0.59889311  0.79699779    -0.82600
O1156       O  0.71913442  0.61982242  0.81558954    -0.85300
C1157       C  0.71404137  0.61143240  0.84390944     1.02400
O1158       O  0.71208906  0.57782831  0.85184994    -0.78100
O1159       O  0.72384802  0.50234529  0.84913461    -0.78200
C1160       C  0.75831245  0.49981507  0.85437530     1.02400
Cr1161     Cr  0.76783598  0.51185676  0.79022806     1.93700
Cr1162     Cr  0.73909934  0.59063606  0.77914171     1.93200
Cr1163     Cr  0.69645904  0.53801483  0.82250344     1.39100
O1164       O  0.73443357  0.54702025  0.79719679    -1.23300
O1165       O  0.53527450  0.24107504  0.78249699    -0.85600
O1166       O  0.49312512  0.27160809  0.73753356    -0.82600
C1167       C  0.49570914  0.30555293  0.74525197     0.97900
O1168       O  0.52576780  0.32285123  0.73995948    -0.82600
O1169       O  0.59978738  0.33804224  0.72679051    -0.85300
C1170       C  0.61536811  0.33676829  0.75289447     1.02400
O1171       O  0.61666796  0.30689065  0.76758219    -0.78000
O1172       O  0.59618009  0.23722126  0.78732978    -0.78200
C1173       C  0.56350852  0.23664651  0.79918347     1.02400
O1174       O  0.56601251  0.18762842  0.74250041    -0.85600
O1175       O  0.52813768  0.22264836  0.69190790    -0.82600
C1176       C  0.51616775  0.24832020  0.67485570     0.97900
O1177       O  0.52051654  0.28163391  0.68308977    -0.82600
O1178       O  0.59642571  0.28870909  0.67529728    -0.85300
C1179       C  0.63080740  0.28577631  0.68043194     1.02400
O1180       O  0.64227901  0.27870736  0.70782176    -0.78100
O1181       O  0.61986054  0.20884939  0.72667933    -0.78200
C1182       C  0.60008847  0.18236848  0.73621601     1.02400
Cr1183     Cr  0.53356561  0.23291585  0.73749945     1.93700
Cr1184     Cr  0.56124838  0.30466398  0.70814917     1.98000
Cr1185     Cr  0.61532059  0.25826358  0.74612385     1.39100
O1186       O  0.57035071  0.26510442  0.73074877    -1.23300
O1187       O  0.75510892  0.46996763  0.99935443    -0.85600
O1188       O  0.72583652  0.50934407  0.54811810    -0.82600
C1189       C  0.69135113  0.50852046  0.54178436     0.97900
O1190       O  0.67320962  0.47852564  0.54404782    -0.82600
O1191       O  0.65631093  0.40355991  0.54711616    -0.85300
C1192       C  0.65614394  0.39342075  0.51893613     1.02400
O1193       O  0.68527766  0.39704048  0.50289681    -0.78000
O1194       O  0.75764741  0.41196362  0.98485661    -0.78200
C1195       C  0.75954532  0.44626955  0.97841775     1.02400
O1196       O  0.80804256  0.43585187  0.53135550    -0.85600
O1197       O  0.77572486  0.46682568  0.58651428    -0.82600
C1198       C  0.75070185  0.47695018  0.60545716     0.97900
O1199       O  0.71682328  0.47243323  0.59854941    -0.82600
O1200       O  0.70792975  0.39719748  0.59629732    -0.85300
C1201       C  0.70856282  0.36431543  0.58624578     1.02400
O1202       O  0.71310070  0.35779849  0.55716662    -0.78100
O1203       O  0.78370978  0.38096887  0.53958444    -0.78200
C1204       C  0.81172007  0.40109676  0.53385562     1.02400
Cr1205     Cr  0.76343516  0.46860992  0.54146691     1.93700
Cr1206     Cr  0.69146287  0.43765334  0.56961043     1.93200
Cr1207     Cr  0.73437767  0.39099061  0.52264759     1.39100
O1208       O  0.73016786  0.43213994  0.54463679    -1.23300
O1209       O  0.52904535  0.27334522  0.97880425    -0.85600
O1210       O  0.49148608  0.25159439  0.52941920    -0.82600
C1211       C  0.46571020  0.24537691  0.54861598     0.97900
O1212       O  0.43199368  0.24380080  0.53980443    -0.82600
O1213       O  0.40869874  0.31141692  0.51735680    -0.85300
C1214       C  0.40458809  0.33885607  0.49988689     1.02400
O1215       O  0.41881314  0.33305478  0.97226596    -0.78000
O1216       O  0.49472235  0.32328196  0.97813082    -0.78200
C1217       C  0.52555400  0.30802278  0.98292093     1.02400
O1218       O  0.49259586  0.21671753  0.94146796    -0.85600
O1219       O  0.46003034  0.18744998  0.99687211    -0.82600
C1220       C  0.42573171  0.18004340  0.99349923     0.97900
O1221       O  0.40356019  0.20479302  0.98509075    -0.82600
O1222       O  0.37687579  0.27200593  0.96350344    -0.85300
C1223       C  0.38407980  0.27561894  0.93451022     1.02400
O1224       O  0.41748286  0.27683934  0.92514512    -0.78100
O1225       O  0.49478756  0.27416973  0.92562367    -0.78200
C1226       C  0.50209365  0.24031066  0.92127125     1.02400
Cr1227     Cr  0.49041067  0.23319538  0.98588986     1.93700
Cr1228     Cr  0.40771374  0.26040307  0.49977398     1.93200
Cr1229     Cr  0.45618555  0.29891282  0.95234429     1.39100
O1230       O  0.45176910  0.26246945  0.97939222    -1.23300
O1231       O  0.29348428  0.50385786  0.80752020    -0.85600
O1232       O  0.27744487  0.46990239  0.75232463    -0.82600
C1233       C  0.27776234  0.44488658  0.73179627     0.97900
O1234       O  0.27830609  0.41106361  0.73960419    -0.82600
O1235       O  0.34306570  0.39240018  0.76794712    -0.85300
C1236       C  0.36815454  0.38935827  0.78785836     1.02400
O1237       O  0.36216412  0.39910975  0.81573234    -0.78000
O1238       O  0.34596661  0.47375992  0.81206716    -0.78200
C1239       C  0.32882558  0.50329034  0.80662495     1.02400
O1240       O  0.23512602  0.46043942  0.83722127    -0.85600
O1241       O  0.21651996  0.42924383  0.77836732    -0.82600
C1242       C  0.21191420  0.39436387  0.77903746     0.97900
O1243       O  0.23753928  0.37376081  0.78847260    -0.82600
O1244       O  0.30400560  0.35154530  0.81647687    -0.85300
C1245       C  0.30367931  0.35716184  0.84592429     1.02400
O1246       O  0.30018710  0.38970166  0.85637223    -0.78100
O1247       O  0.28974236  0.46559233  0.85939386    -0.78200
C1248       C  0.25476050  0.46963497  0.86034487     1.02400
Cr1249     Cr  0.25794469  0.46266623  0.79482356     1.93700
Cr1250     Cr  0.29047638  0.38532699  0.78000971     1.93200
Cr1251     Cr  0.32194542  0.43184440  0.83354653     1.39100
O1252       O  0.28969183  0.42634672  0.80282449    -1.23300
O1253       O  0.49169443  0.72876822  0.78587401    -0.85600
O1254       O  0.52767760  0.70018953  0.73551105    -0.82600
C1255       C  0.52735957  0.66560057  0.74068431     0.97900
O1256       O  0.49688923  0.64791128  0.73922763    -0.82600
O1257       O  0.42130239  0.63221719  0.73496024    -0.85300
C1258       C  0.41044248  0.63180317  0.76283715     1.02400
O1259       O  0.41150960  0.66127358  0.77859364    -0.78000
O1260       O  0.43197359  0.73158479  0.79722195    -0.78200
C1261       C  0.46593651  0.73325738  0.80549106     1.02400
O1262       O  0.45424739  0.78263120  0.75060617    -0.85600
O1263       O  0.48560230  0.74942761  0.69607583    -0.82600
C1264       C  0.49541985  0.72432081  0.67716045     0.97900
O1265       O  0.49217698  0.69075495  0.68453017    -0.82600
O1266       O  0.41649640  0.68275961  0.68527861    -0.85300
C1267       C  0.38296770  0.68374564  0.69414068     1.02400
O1268       O  0.37516352  0.68939877  0.72288315    -0.78100
O1269       O  0.39875718  0.75977973  0.74130926    -0.78200
C1270       C  0.41952731  0.78713674  0.74747656     1.02400
Cr1271     Cr  0.48674275  0.73793807  0.74139551     1.93700
Cr1272     Cr  0.45624724  0.66640110  0.71304436     1.93200
Cr1273     Cr  0.40752273  0.71018666  0.75840962     1.39100
O1274       O  0.44995332  0.70510200  0.73777088    -1.23300
O1275       O  0.26662497  0.50831231  0.99675654    -0.85600
O1276       O  0.29121841  0.47181949  0.54295576    -0.82600
C1277       C  0.32551590  0.47332531  0.53504757     0.97900
O1278       O  0.34348205  0.50332580  0.53781157    -0.82600
O1279       O  0.35974716  0.57776230  0.54684620    -0.85300
C1280       C  0.35916495  0.59094439  0.51977793     1.02400
O1281       O  0.32894863  0.59021309  0.50513238    -0.78000
O1282       O  0.26069857  0.56775493  0.98774365    -0.78200
C1283       C  0.25825846  0.53411756  0.97861421     1.02400
O1284       O  0.20788358  0.54652407  0.53808941    -0.85600
O1285       O  0.24513001  0.51092602  0.58904943    -0.82600
C1286       C  0.27176830  0.49988965  0.60568140     0.97900
O1287       O  0.30467435  0.50261565  0.59554828    -0.82600
O1288       O  0.31200176  0.57847366  0.59933581    -0.85300
C1289       C  0.31013303  0.61239226  0.59264986     1.02400
O1290       O  0.30336648  0.62206262  0.56466798    -0.78100
O1291       O  0.23192218  0.60102561  0.54856938    -0.78200
C1292       C  0.20409857  0.58116656  0.54199868     1.02400
Cr1293     Cr  0.25286214  0.51309454  0.54265978     1.93700
Cr1294     Cr  0.32678456  0.54114457  0.56803561     1.93200
Cr1295     Cr  0.28051535  0.59279304  0.52816202     1.39100
O1296       O  0.28640231  0.54922270  0.54606584    -1.23300
O1297       O  0.99483500  0.20113975  0.73540930    -0.85600
O1298       O  0.03506023  0.22830212  0.78353668    -0.82600
C1299       C  0.06276755  0.23245012  0.80097312     0.97900
O1300       O  0.09573477  0.23389761  0.78986483    -0.82600
O1301       O  0.11756470  0.16644827  0.76759210    -0.85300
C1302       C  0.11692513  0.13709410  0.75183881     1.02400
O1303       O  0.10155578  0.13628153  0.72551800    -0.78000
O1304       O  0.02667366  0.14986124  0.73604484    -0.78200
C1305       C  0.99661543  0.16673230  0.74094024     1.02400
O1306       O  0.03151616  0.25313241  0.69436979    -0.85600
O1307       O  0.06697323  0.28539392  0.74780027    -0.82600
C1308       C  0.10088886  0.29161191  0.74166775     0.97900
O1309       O  0.12083199  0.26575789  0.73142004    -0.82600
O1310       O  0.14538706  0.19818002  0.70994245    -0.85300
C1311       C  0.13491091  0.19257137  0.68196667     1.02400
O1312       O  0.10087363  0.18804321  0.67595796    -0.78100
O1313       O  0.02515443  0.19457328  0.68136155    -0.78200
C1314       C  0.02018515  0.22839206  0.67557127     1.02400
Cr1315     Cr  0.03518022  0.23982924  0.73924060     1.93700
Cr1316     Cr  0.11652477  0.21568483  0.74837338     1.93200
Cr1317     Cr  0.06414886  0.17016643  0.70676771     1.39100
O1318       O  0.07221857  0.20863398  0.73159662    -1.23300
O1319       O  0.22956436  0.98734187  0.52111941    -0.85600
O1320       O  0.28083019  0.02905079  0.99511447    -0.82600
C1321       C  0.26142328  0.04345718  0.97428012     0.97900
O1322       O  0.23762513  0.06805028  0.98166436    -0.82600
O1323       O  0.18176411  0.10986826  0.51680344    -0.85300
C1324       C  0.15368055  0.08900686  0.51939912     1.02400
O1325       O  0.15565024  0.05874336  0.53364445    -0.78000
O1326       O  0.18759920  0.99618706  0.55786018    -0.78200
C1327       C  0.20013732  0.97742020  0.53529628     1.02400
O1328       O  0.26202191  0.00272407  0.58041087    -0.85600
O1329       O  0.30797147  0.05783036  0.55228271    -0.82600
C1330       C  0.31582310  0.08605168  0.53596636     0.97900
O1331       O  0.29099648  0.10196140  0.52055283    -0.82600
O1332       O  0.23671140  0.13103267  0.56100356    -0.85300
C1333       C  0.21113497  0.12893233  0.58156764     1.02400
O1334       O  0.18843029  0.10210410  0.58190371    -0.78100
O1335       O  0.22369719  0.04098964  0.60374310    -0.78200
C1336       C  0.24627859  0.01462652  0.60476992     1.02400
Cr1337     Cr  0.26679816  0.02397051  0.53777000     1.93700
Cr1338     Cr  0.23585794  0.10059945  0.52140060     1.93200
Cr1339     Cr  0.19242678  0.05021883  0.56704839     1.39100
O1340       O  0.23179632  0.05841526  0.54238852    -1.23300
O1341       O  0.03239849  0.75000769  0.52509037    -0.85600
O1342       O  0.00388127  0.77052781  0.97360218    -0.82600
C1343       C  0.00585772  0.80548032  0.97796528     0.97900
O1344       O  0.03670737  0.82196401  0.97507338    -0.82600
O1345       O  0.11251107  0.83521229  0.97241779    -0.85300
C1346       C  0.12036025  0.84224750  0.50119974     1.02400
O1347       O  0.11545882  0.81454352  0.51829374    -0.78000
O1348       O  0.09074519  0.74628248  0.53941933    -0.78200
C1349       C  0.05604728  0.74584459  0.54601007     1.02400
O1350       O  0.07486166  0.68706257  0.99227617    -0.85600
O1351       O  0.04463344  0.71701119  0.93572963    -0.82600
C1352       C  0.03490294  0.74124031  0.91635320     0.97900
O1353       O  0.04147611  0.77502983  0.92199436    -0.82600
O1354       O  0.11830751  0.77977564  0.92549422    -0.85300
C1355       C  0.15122551  0.78046029  0.93562109     1.02400
O1356       O  0.15707307  0.77723376  0.96478130    -0.78100
O1357       O  0.13157944  0.70846863  0.98499941    -0.78200
C1358       C  0.10989311  0.68229352  0.99215038     1.02400
Cr1359     Cr  0.04325782  0.73157821  0.98089144     1.93700
Cr1360     Cr  0.07755234  0.80005353  0.95076110     1.93200
Cr1361     Cr  0.11860399  0.76366011  0.50044974     1.39100
O1362       O  0.08113622  0.76322210  0.97721928    -1.23300
O1363       O  0.25230484  0.96948435  0.74391072    -0.85600
O1364       O  0.22472511  0.00402474  0.79395393    -0.82600
C1365       C  0.18958978  0.00208647  0.78992838     0.97900
O1366       O  0.17242415  0.97212418  0.79527084    -0.82600
O1367       O  0.15821777  0.89674179  0.80328054    -0.85300
C1368       C  0.15495171  0.88644524  0.77538041     1.02400
O1369       O  0.18157068  0.89104481  0.75698350    -0.78000
O1370       O  0.24654966  0.91070372  0.73121532    -0.78200
C1371       C  0.24949069  0.94445845  0.72370466     1.02400
O1372       O  0.30831683  0.93170533  0.77716175    -0.85600
O1373       O  0.27796956  0.96636795  0.83295759    -0.82600
C1374       C  0.25376873  0.97851315  0.85196546     0.97900
O1375       O  0.21982180  0.97175796  0.84734428    -0.82600
O1376       O  0.21515758  0.89446419  0.84807896    -0.85300
C1377       C  0.21639047  0.86119776  0.83854111     1.02400
O1378       O  0.21861061  0.85415477  0.80933750    -0.78100
O1379       O  0.28478840  0.87574023  0.78223970    -0.78200
C1380       C  0.31187097  0.89666144  0.77596102     1.02400
Cr1381     Cr  0.26369077  0.96451417  0.78797656     1.93700
Cr1382     Cr  0.19450734  0.93340584  0.82127098     1.93200
Cr1383     Cr  0.23287190  0.88612573  0.77181882     1.39100
O1384       O  0.23114266  0.92770002  0.79374483    -1.23300
O1385       O  0.02164002  0.77849223  0.72875090    -0.85600
O1386       O  0.98694930  0.74790533  0.77807456    -0.82600
C1387       C  0.96161383  0.74256772  0.79791790     0.97900
O1388       O  0.92741790  0.74283679  0.78979585    -0.82600
O1389       O  0.90443050  0.81220076  0.77196572    -0.85300
C1390       C  0.90256680  0.84164966  0.75676974     1.02400
O1391       O  0.91429249  0.84230511  0.72896724    -0.78000
O1392       O  0.98937743  0.82932925  0.73325910    -0.78200
C1393       C  0.01954134  0.81241971  0.73653770     1.02400
O1394       O  0.98215330  0.72782352  0.68773274    -0.85600
O1395       O  0.95076169  0.69352002  0.74181729    -0.82600
C1396       C  0.91612607  0.68775037  0.73924059     0.97900
O1397       O  0.89485416  0.71374158  0.73217574    -0.82600
O1398       O  0.86925935  0.78326667  0.71541544    -0.85300
C1399       C  0.87683786  0.78973144  0.68675834     1.02400
O1400       O  0.91036413  0.79211223  0.67781338    -0.78100
O1401       O  0.98723220  0.78671466  0.67663651    -0.78200
C1402       C  0.99265252  0.75317343  0.66943008     1.02400
Cr1403     Cr  0.98214658  0.73909029  0.73330683     1.93700
Cr1404     Cr  0.90216867  0.76337850  0.75072728     1.93200
Cr1405     Cr  0.94997710  0.80953471  0.70602929     1.39100
O1406       O  0.94450453  0.77041174  0.73011933    -1.23300
O1407       O  0.79360902  0.99741470  0.52607490    -0.85600
O1408       O  0.74766804  0.94301761  0.99640361    -0.82600
C1409       C  0.76631433  0.92738398  0.97486297     0.97900
O1410       O  0.78898518  0.90189404  0.98158923    -0.82600
O1411       O  0.83721697  0.86463993  0.51962296    -0.85300
C1412       C  0.86637797  0.88364245  0.51723588     1.02400
O1413       O  0.86635565  0.91617407  0.52786683    -0.78000
O1414       O  0.84352914  0.98184856  0.55191902    -0.78200
C1415       C  0.82625024  0.00413692  0.53510257     1.02400
O1416       O  0.76220525  0.97702613  0.58472190    -0.85600
O1417       O  0.71498576  0.92627962  0.55358942    -0.82600
C1418       C  0.70555581  0.89982016  0.53582403     0.97900
O1419       O  0.72982749  0.88307550  0.52023766    -0.82600
O1420       O  0.78101786  0.85372386  0.56454098    -0.85300
C1421       C  0.80800014  0.85467835  0.58375790     1.02400
O1422       O  0.83361561  0.87890302  0.58147664    -0.78100
O1423       O  0.80973651  0.94626377  0.60334327    -0.78200
C1424       C  0.78379605  0.96924180  0.60684618     1.02400
Cr1425     Cr  0.75770845  0.95915251  0.54058109     1.93700
Cr1426     Cr  0.78463668  0.88074810  0.52349661     1.93200
Cr1427     Cr  0.83440067  0.93010282  0.56420671     1.39100
O1428       O  0.79202692  0.92370456  0.54329756    -1.23300
O1429       O  0.99142670  0.23304120  0.53102161    -0.85600
O1430       O  0.02671923  0.20495701  0.48131171    -0.82600
C1431       C  0.02379169  0.16028619  0.98377467     0.97900
O1432       O  0.99303246  0.14436220  0.97860985    -0.82600
O1433       O  0.91731269  0.13342602  0.97026447    -0.85300
C1434       C  0.90848857  0.13490411  0.49998228     1.02400
O1435       O  0.91173632  0.16168272  0.51846393    -0.78000
O1436       O  0.93231666  0.22786535  0.54335096    -0.78200
C1437       C  0.96608703  0.23266914  0.55109776     1.02400
O1438       O  0.95673083  0.28032984  0.99857819    -0.85600
O1439       O  0.98961750  0.25084069  0.94243912    -0.82600
C1440       C  0.00060163  0.22716590  0.92270297     0.97900
O1441       O  0.99425328  0.19326874  0.92733203    -0.82600
O1442       O  0.91696190  0.19084672  0.92666751    -0.85300
C1443       C  0.88349242  0.19168316  0.93587441     1.02400
O1444       O  0.87591100  0.19337576  0.96507679    -0.78100
O1445       O  0.89692030  0.26431113  0.49201233    -0.78200
C1446       C  0.92166961  0.28563960  0.99861507     1.02400
Cr1447     Cr  0.98837407  0.23507779  0.98685307     1.93700
Cr1448     Cr  0.95511837  0.16838354  0.95289489     1.93200
Cr1449     Cr  0.90733522  0.21277567  0.50309554     1.39100
O1450       O  0.95032121  0.20424443  0.98082508    -1.23300
O1451       O  0.76741991  0.00867963  0.74922170    -0.85600
O1452       O  0.79304292  0.97399070  0.79976848    -0.82600
C1453       C  0.82808788  0.97639974  0.79534949     0.97900
O1454       O  0.84477872  0.00689523  0.79955725    -0.82600
O1455       O  0.85775724  0.08232518  0.80582189    -0.85300
C1456       C  0.85979624  0.09299240  0.77800065     1.02400
O1457       O  0.83212128  0.08946193  0.76057597    -0.78000
O1458       O  0.76464266  0.06780164  0.73760708    -0.78200
C1459       C  0.76582017  0.03387105  0.72937595     1.02400
O1460       O  0.70927260  0.04499067  0.78228928    -0.85600
O1461       O  0.73862815  0.01217359  0.83819363    -0.82600
C1462       C  0.76307696  0.00178010  0.85726060     0.97900
O1463       O  0.79699390  0.00903675  0.85216784    -0.82600
O1464       O  0.80184720  0.08519915  0.85268070    -0.85300
C1465       C  0.80113099  0.11828784  0.84351550     1.02400
O1466       O  0.79807037  0.12533559  0.81455725    -0.78100
O1467       O  0.73011020  0.10078410  0.79292192    -0.78200
C1468       C  0.70402169  0.07966812  0.78462838     1.02400
Cr1469     Cr  0.75401901  0.01324161  0.79324533     1.93700
Cr1470     Cr  0.82241321  0.04620639  0.82550538     1.93200
Cr1471     Cr  0.78131149  0.09268122  0.77804988     1.39100
O1472       O  0.78550903  0.05090773  0.79892604    -1.23300
C1473       C  0.82353933  0.16152713  0.92107910    -0.06000
C1474       C  0.85368052  0.18438350  0.91242488    -0.00100
C1475       C  0.85765179  0.19413378  0.88049254    -0.08600
C1476       C  0.83620334  0.17514805  0.85798799    -0.06000
C1477       C  0.80998485  0.14804859  0.86659996    -0.00100
C1478       C  0.80067189  0.14441785  0.89858110    -0.08500
C1479       C  0.76776175  0.12153616  0.90960438     0.61800
H1480       H  0.81896351  0.15522167  0.94546866     0.12500
H1481       H  0.84239115  0.17902532  0.83348231     0.12500
C1482       C  0.88474984  0.22389104  0.86992197     0.62100
F1483       F  0.74919928  0.14014199  0.93327564    -0.23100
F1484       F  0.78007223  0.08802813  0.92076270    -0.20400
F1485       F  0.74263293  0.11537466  0.88580448    -0.20100
F1486       F  0.92059148  0.21025375  0.86908779    -0.20200
F1487       F  0.88275460  0.25377857  0.89019072    -0.20500
F1488       F  0.87623661  0.23635435  0.84041666    -0.23200
C1489       C  0.85243027  0.10491912  0.52153425    -0.06000
C1490       C  0.88876572  0.10105307  0.50977021    -0.00100
C1491       C  0.90423889  0.06543877  0.50602039    -0.08600
C1492       C  0.88255029  0.03456107  0.51449215    -0.06000
C1493       C  0.84586461  0.03826677  0.52556509    -0.00100
C1494       C  0.83028274  0.07395227  0.52916761    -0.08500
C1495       C  0.79081095  0.07947612  0.54124284     0.61800
H1496       H  0.84775403  0.12552968  0.03397187     0.12500
H1497       H  0.89393819  0.00699537  0.51211650     0.12500
C1498       C  0.94360203  0.06008198  0.49372259     0.62100
F1499       F  0.79348175  0.10863595  0.06225695    -0.23100
F1500       F  0.76567978  0.06470124  0.52019660    -0.20400
F1501       F  0.76887229  0.05942947  0.03766904    -0.20100
F1502       F  0.96830463  0.08080937  0.51137414    -0.20200
F1503       F  0.94588699  0.07117017  0.46302117    -0.20500
F1504       F  0.95435386  0.02340980  0.49498648    -0.23200
C1505       C  0.77907847  0.94731658  0.88775113    -0.06000
C1506       C  0.75503880  0.97739822  0.88414620    -0.00100
C1507       C  0.72987557  0.98620671  0.90832512    -0.08600
C1508       C  0.73351709  0.96802540  0.93710113    -0.06000
C1509       C  0.76066427  0.94045041  0.94204414    -0.00100
C1510       C  0.78199619  0.92815296  0.91596827    -0.08500
C1511       C  0.80825736  0.89563031  0.91744463     0.61800
H1512       H  0.79719892  0.94009250  0.86838249     0.12500
H1513       H  0.71561330  0.97624381  0.95626314     0.12500
C1514       C  0.70006493  0.01503154  0.90390942     0.62100
F1515       F  0.82317269  0.88667223  0.88852443    -0.23100
F1516       F  0.78889486  0.86486058  0.92801755    -0.20400
F1517       F  0.83753256  0.90411697  0.93708162    -0.20100
F1518       F  0.67694033  0.00405350  0.87986402    -0.20200
F1519       F  0.71628061  0.04863214  0.89661752    -0.20500
F1520       F  0.67845977  0.01980245  0.93046071    -0.23200
C1521       C  0.80047428  0.02795402  0.67989887    -0.06000
C1522       C  0.76699980  0.02236861  0.69621372    -0.00100
C1523       C  0.73860085  0.99995471  0.68272831    -0.08600
C1524       C  0.74473355  0.98402249  0.65306485    -0.06000
C1525       C  0.77889422  0.98809456  0.63743532    -0.00100
C1526       C  0.80729254  0.01067010  0.65087154    -0.08500
C1527       C  0.84469117  0.01656731  0.63477527     0.61800
H1528       H  0.82210965  0.04438391  0.69097446     0.12500
H1529       H  0.72337424  0.96694621  0.64231878     0.12500
C1530       C  0.70211749  0.99250444  0.69974295     0.62100
F1531       F  0.86716406  0.04131133  0.65096744    -0.23100
F1532       F  0.83937034  0.03059587  0.60534280    -0.20400
F1533       F  0.86337974  0.98336562  0.63243266    -0.20100
F1534       F  0.68560000  0.02563840  0.70771017    -0.20200
F1535       F  0.70848699  0.97249600  0.72645726    -0.20500
F1536       F  0.67732833  0.97245731  0.68153223    -0.23200
C1537       C  0.80332230  0.84052865  0.63990018    -0.06000
C1538       C  0.81211513  0.82789948  0.60973013    -0.00100
C1539       C  0.83548184  0.79675632  0.60642348    -0.08600
C1540       C  0.85254677  0.78190398  0.63304099    -0.06000
C1541       C  0.84748244  0.79747544  0.66292358    -0.00100
C1542       C  0.82058122  0.82592694  0.66665617    -0.08500
C1543       C  0.81250653  0.84329945  0.69818221     0.61800
H1544       H  0.78570618  0.86461711  0.64207255     0.12500
H1545       H  0.87283854  0.76008817  0.63024018     0.12500
C1546       C  0.84548602  0.78185900  0.57445257     0.62100
F1547       F  0.78468731  0.86952039  0.69675454    -0.23100
F1548       F  0.84419565  0.86063658  0.70921052    -0.20400
F1549       F  0.80102075  0.81621506  0.71876060    -0.20100
F1550       F  0.86833818  0.80710297  0.55941956    -0.20200
F1551       F  0.81339985  0.77620787  0.55734970    -0.20500
F1552       F  0.86403924  0.74850431  0.57607178    -0.23200
C1553       C  0.89837346  0.90978726  0.75897142    -0.06000
C1554       C  0.88521949  0.87558335  0.77015543    -0.00100
C1555       C  0.85364785  0.87491920  0.79036626    -0.08600
C1556       C  0.83658346  0.90864858  0.79838625    -0.06000
C1557       C  0.84942905  0.94271355  0.78676116    -0.00100
C1558       C  0.88098454  0.94340850  0.76662790    -0.08500
C1559       C  0.89566463  0.97903208  0.75218925     0.61800
H1560       H  0.92231570  0.90989341  0.74349248     0.12500
H1561       H  0.81261877  0.90866779  0.81384592     0.12500
C1562       C  0.83689177  0.83909548  0.80273819     0.62100
F1563       F  0.92309076  0.97240651  0.73003711    -0.23100
F1564       F  0.91095468  0.00146479  0.77506820    -0.20400
F1565       F  0.86703441  0.99743241  0.73768788    -0.20100
F1566       F  0.86174696  0.82253986  0.82244552    -0.20200
F1567       F  0.82866153  0.81523850  0.77837080    -0.20500
F1568       F  0.80429006  0.84502149  0.81941349    -0.23200
C1569       C  0.08655600  0.88102764  0.77560129    -0.06000
C1570       C  0.12082989  0.86725740  0.76501671    -0.00100
C1571       C  0.12169871  0.83449913  0.74654220    -0.08600
C1572       C  0.08785309  0.81781564  0.73834619    -0.06000
C1573       C  0.05337682  0.83230240  0.74757039    -0.00100
C1574       C  0.05254965  0.86419423  0.76719588    -0.08500
C1575       C  0.01642013  0.88013091  0.77992058     0.61800
H1576       H  0.08666817  0.90562699  0.79020601     0.12500
H1577       H  0.08835599  0.79318960  0.72404075     0.12500
C1578       C  0.15731018  0.81689386  0.73410797     0.62100
F1579       F  0.02277714  0.90760882  0.80198134    -0.23100
F1580       F  0.99544667  0.85252274  0.79399770    -0.20400
F1581       F  0.99639227  0.89554129  0.75597763    -0.20100
F1582       F  0.18623369  0.81976468  0.75495706    -0.20200
F1583       F  0.16755770  0.83397196  0.70671996    -0.20500
F1584       F  0.15206320  0.77950640  0.72792707    -0.23200
C1585       C  0.93572539  0.81810226  0.47762821    -0.06000
C1586       C  0.96978123  0.83328950  0.48740848    -0.00100
C1587       C  0.97132669  0.86222001  0.00013419    -0.08600
C1588       C  0.93688788  0.87827203  0.00819144    -0.06000
C1589       C  0.90116025  0.86656553  0.50462696    -0.00100
C1590       C  0.90137612  0.83363268  0.48602064    -0.08500
C1591       C  0.86609292  0.81409763  0.47487192     0.61800
H1592       H  0.93618396  0.79302981  0.46364370     0.12500
H1593       H  0.93655124  0.90422462  0.02095581     0.12500
C1594       C  0.00704043  0.88297978  0.00837398     0.62100
F1595       F  0.87353982  0.78651447  0.45315437    -0.23100
F1596       F  0.84295420  0.83909204  0.46094050    -0.20400
F1597       F  0.84773798  0.79776909  0.49963769    -0.20100
F1598       F  0.02631757  0.89195661  0.98140450    -0.20200
F1599       F  0.02901222  0.86134026  0.02714806    -0.20500
F1600       F  0.00010687  0.91572181  0.02429362    -0.23200
C1601       C  0.17475752  0.77866379  0.88162030    -0.06000
C1602       C  0.18122462  0.78966812  0.91253159    -0.00100
C1603       C  0.20945785  0.81654495  0.91820497    -0.08600
C1604       C  0.22303957  0.83766710  0.89285875    -0.06000
C1605       C  0.21109596  0.83096800  0.86208139    -0.00100
C1606       C  0.18950689  0.79844590  0.85618186    -0.08500
C1607       C  0.17885340  0.78618520  0.82364337     0.61800
H1608       H  0.15484176  0.75648073  0.87755058     0.12500
H1609       H  0.24152318  0.86098689  0.89720001     0.12500
C1610       C  0.22467464  0.82346467  0.95057188     0.62100
F1611       F  0.15993668  0.75259100  0.82348526    -0.23100
F1612       F  0.21062533  0.78193761  0.80560914    -0.20400
F1613       F  0.15583354  0.81227329  0.81085124    -0.20100
F1614       F  0.23541971  0.79021472  0.96334968    -0.20200
F1615       F  0.19792991  0.83948216  0.96934325    -0.20500
F1616       F  0.25548961  0.84680014  0.94999211    -0.23200
C1617       C  0.06319803  0.75602730  0.60290033    -0.06000
C1618       C  0.04207460  0.74109213  0.57850739    -0.00100
C1619       C  0.00684650  0.72420922  0.58550064    -0.08600
C1620       C  0.99253131  0.72671983  0.61608581    -0.06000
C1621       C  0.01227557  0.74481220  0.63970799    -0.00100
C1622       C  0.04890602  0.75808893  0.63346962    -0.08500
C1623       C  0.07299669  0.77393167  0.65915455     0.61800
H1624       H  0.09033420  0.76780376  0.59757713     0.12500
H1625       H  0.96481253  0.71631273  0.62137248     0.12500
C1626       C  0.98362611  0.70416819  0.56102500     0.62100
F1627       F  0.10904981  0.78108798  0.64906244    -0.23100
F1628       F  0.07460069  0.74858807  0.68306595    -0.20400
F1629       F  0.05814347  0.80678718  0.66999453    -0.20100
F1630       F  0.00600006  0.68158694  0.54280498    -0.20200
F1631       F  0.96604073  0.72965749  0.54243621    -0.20500
F1632       F  0.95646133  0.68191432  0.57453796    -0.23200
C1633       C  0.97835988  0.75157320  0.88552525    -0.06000
C1634       C  0.01210021  0.73244239  0.88839501    -0.00100
C1635       C  0.02555674  0.71169558  0.86274970    -0.08600
C1636       C  0.00615517  0.71323803  0.83424133    -0.06000
C1637       C  0.97401436  0.73506849  0.83054266    -0.00100
C1638       C  0.95909088  0.75337329  0.85705795    -0.08500
C1639       C  0.92491168  0.77730466  0.85477246     0.61800
H1640       H  0.96840585  0.76719332  0.90552340     0.12500
H1641       H  0.01717817  0.69885847  0.81399460     0.12500
C1642       C  0.06127350  0.68985838  0.86510879     0.62100
F1643       F  0.91539273  0.79330675  0.88312003    -0.23100
F1644       F  0.89497764  0.75602094  0.84488608    -0.20400
F1645       F  0.93190143  0.80541126  0.83380959    -0.20100
F1646       F  0.07000327  0.67195611  0.83739783    -0.20200
F1647       F  0.05738858  0.66341502  0.88805626    -0.20500
F1648       F  0.09052446  0.71339471  0.87259295    -0.23200
C1649       C  0.17778049  0.91412240  0.54783919    -0.06000
C1650       C  0.17980139  0.94312608  0.52632228    -0.00100
C1651       C  0.15925152  0.94043509  0.49847119    -0.08600
C1652       C  0.13959642  0.90747358  0.49196228    -0.06000
C1653       C  0.13885213  0.87725809  0.51260307    -0.00100
C1654       C  0.15749382  0.88114672  0.54171597    -0.08500
C1655       C  0.15643274  0.85114325  0.56635868     0.61800
H1656       H  0.19251049  0.91761160  0.56961502     0.12500
H1657       H  0.12451584  0.90521132  0.47029580     0.12500
C1658       C  0.15672823  0.97286536  0.47633611     0.62100
F1659       F  0.17511522  0.86182352  0.59312733    -0.23100
F1660       F  0.16371105  0.81797994  0.06286254    -0.20400
F1661       F  0.11989976  0.84343838  0.57471363    -0.20100
F1662       F  0.19176017  0.98227083  0.46537269    -0.20200
F1663       F  0.14155635  0.00286024  0.49184213    -0.20500
F1664       F  0.13443528  0.96484641  0.45093766    -0.23200
C1665       C  0.08578443  0.13516072  0.97070417    -0.06000
C1666       C  0.05668619  0.14856767  0.49494175    -0.00100
C1667       C  0.06097489  0.13482497  0.52548679    -0.08600
C1668       C  0.09134624  0.11177192  0.53168681    -0.06000
C1669       C  0.11767192  0.10298604  0.50855167    -0.00100
C1670       C  0.11813518  0.11502577  0.97731443    -0.08500
C1671       C  0.14921945  0.11258393  0.95322002     0.61800
H1672       H  0.08351359  0.14967609  0.94882472     0.12500
H1673       H  0.09638274  0.10276291  0.55528981     0.12500
C1674       C  0.03561898  0.14711080  0.55197423     0.62100
F1675       F  0.13818863  0.12579149  0.92461134    -0.23100
F1676       F  0.15957513  0.07604318  0.94920977    -0.20400
F1677       F  0.17966674  0.13328686  0.96279201    -0.20100
F1678       F  0.99876178  0.14017004  0.54474880    -0.20200
F1679       F  0.04073097  0.18460860  0.55703797    -0.20500
F1680       F  0.04335470  0.12895918  0.57942982    -0.23200
C1681       C  0.24594311  0.04796371  0.91820017    -0.06000
C1682       C  0.26664944  0.03049167  0.94126839    -0.00100
C1683       C  0.29016131  0.00019700  0.93218563    -0.08600
C1684       C  0.28732248  0.98565046  0.90169973    -0.06000
C1685       C  0.26333857  0.00081678  0.87998128    -0.00100
C1686       C  0.24449185  0.03418819  0.88755049    -0.08500
C1687       C  0.22413146  0.05616968  0.86314041     0.61800
H1688       H  0.22995835  0.07219345  0.92447910     0.12500
H1689       H  0.30215041  0.96078041  0.89509484     0.12500
C1690       C  0.31758295  0.98199098  0.95404334     0.62100
F1691       F  0.21335620  0.09059055  0.87425631    -0.23100
F1692       F  0.19245488  0.03746433  0.85364273    -0.20400
F1693       F  0.24774166  0.06179001  0.83803809    -0.20100
F1694       F  0.29856571  0.96367890  0.97752687    -0.20200
F1695       F  0.34125034  0.00845419  0.96664262    -0.20500
F1696       F  0.33964428  0.95626361  0.93872567    -0.23200
C1697       C  0.28145559  0.97834852  0.68165244    -0.06000
C1698       C  0.25100794  0.95616008  0.69086344    -0.00100
C1699       C  0.22069707  0.95096650  0.67042462    -0.08600
C1700       C  0.22054116  0.97062349  0.64234794    -0.06000
C1701       C  0.25015721  0.99411098  0.63392671    -0.00100
C1702       C  0.28195981  0.99678985  0.65294449    -0.08500
C1703       C  0.31564176  0.01964028  0.64328968     0.61800
H1704       H  0.30451421  0.98181449  0.69757972     0.12500
H1705       H  0.19704631  0.96808359  0.62674762     0.12500
C1706       C  0.18849924  0.92545256  0.67851578     0.62100
F1707       F  0.34386869  0.01803518  0.66501931    -0.23100
F1708       F  0.30559546  0.05616794  0.64012569    -0.20400
F1709       F  0.32944123  0.00662244  0.61514853    -0.20100
F1710       F  0.17149403  0.93738015  0.70572291    -0.20200
F1711       F  0.20189310  0.89011221  0.68239283    -0.20500
F1712       F  0.16193131  0.92417431  0.65530737    -0.23200
C1713       C  0.92800273  0.16225023  0.74330298    -0.06000
C1714       C  0.96234796  0.14647268  0.75092702    -0.00100
C1715       C  0.96259580  0.11292238  0.76799700    -0.08600
C1716       C  0.92832885  0.09612894  0.77583799    -0.06000
C1717       C  0.89425006  0.11127717  0.76691072    -0.00100
C1718       C  0.89387556  0.14516401  0.75057201    -0.08500
C1719       C  0.85783402  0.16413465  0.74173940     0.61800
H1720       H  0.92795653  0.18836251  0.73136060     0.12500
H1721       H  0.92782386  0.07072976  0.78904704     0.12500
C1722       C  0.99840773  0.09509644  0.77862987     0.62100
F1723       F  0.86421196  0.19860688  0.72873033    -0.23100
F1724       F  0.83575417  0.16914558  0.76792967    -0.20400
F1725       F  0.83885043  0.14277026  0.72009596    -0.20100
F1726       F  0.02022329  0.12082537  0.79431869    -0.20200
F1727       F  0.01760760  0.08152585  0.75303797    -0.20500
F1728       F  0.99168834  0.06581950  0.79859566    -0.23200
C1729       C  0.05215578  0.21252754  0.88679040    -0.06000
C1730       C  0.02301713  0.23676535  0.89475690    -0.00100
C1731       C  0.01283179  0.26458520  0.87361848    -0.08600
C1732       C  0.02852160  0.26373245  0.84347674    -0.06000
C1733       C  0.05504952  0.23712138  0.83461054    -0.00100
C1734       C  0.06861055  0.21235481  0.85699879    -0.08500
C1735       C  0.09819801  0.18414348  0.84882220     0.61800
H1736       H  0.06042904  0.19207684  0.90364845     0.12500
H1737       H  0.01908285  0.28299135  0.82607450     0.12500
C1738       C  0.98474689  0.29399043  0.88239211     0.62100
F1739       F  0.10756360  0.16283763  0.87416860    -0.23100
F1740       F  0.13009845  0.20214851  0.83858729    -0.20400
F1741       F  0.08524016  0.16065318  0.82567240    -0.20100
F1742       F  0.99808154  0.31468159  0.90721723    -0.20200
F1743       F  0.95140394  0.27760587  0.89084346    -0.20500
F1744       F  0.97807003  0.31780179  0.85799103    -0.23200
C1745       C  0.01951951  0.25930681  0.62448935    -0.06000
C1746       C  0.00090552  0.23742114  0.64640711    -0.00100
C1747       C  0.96674153  0.21997848  0.63829405    -0.08600
C1748       C  0.95560735  0.21978492  0.60703808    -0.06000
C1749       C  0.97663799  0.23802814  0.58419143    -0.00100
C1750       C  0.00727408  0.26091394  0.59348097    -0.08500
C1751       C  0.02665658  0.28757182  0.57130186     0.61800
H1752       H  0.04483327  0.27362371  0.63138437     0.12500
H1753       H  0.93096993  0.20435417  0.60012663     0.12500
C1754       C  0.94146144  0.20299728  0.66279335     0.62100
F1755       F  0.04859520  0.31306432  0.58720226    -0.23100
F1756       F  0.00043059  0.30714842  0.55486918    -0.20400
F1757       F  0.04935601  0.26841660  0.55076405    -0.20100
F1758       F  0.93658485  0.22835031  0.68675791    -0.20200
F1759       F  0.95685681  0.17097824  0.67417364    -0.20500
F1760       F  0.90668133  0.19416748  0.65099403    -0.23200
C1761       C  0.17749608  0.18343298  0.60061613    -0.06000
C1762       C  0.20537251  0.15738068  0.60615356    -0.00100
C1763       C  0.21505614  0.14975123  0.63741801    -0.08600
C1764       C  0.19355777  0.16480901  0.66191775    -0.06000
C1765       C  0.16255516  0.18708051  0.65619362    -0.00100
C1766       C  0.15585694  0.19854331  0.62512196    -0.08500
C1767       C  0.12427332  0.22440816  0.61729380     0.61800
H1768       H  0.16979296  0.18864565  0.57669182     0.12500
H1769       H  0.19923579  0.15641043  0.68557040     0.12500
C1770       C  0.24561856  0.12313869  0.64590285     0.62100
F1771       F  0.12922613  0.23978985  0.58809975    -0.23100
F1772       F  0.12263357  0.25309379  0.63881702    -0.20400
F1773       F  0.09086328  0.20506829  0.61741123    -0.20100
F1774       F  0.26725448  0.11343294  0.62044070    -0.20200
F1775       F  0.22993925  0.09143614  0.65849596    -0.20500
F1776       F  0.26870582  0.13951288  0.66779617    -0.23200
C1777       C  0.18881785  0.06988889  0.78149540    -0.06000
C1778       C  0.16902044  0.03605578  0.78059491    -0.00100
C1779       C  0.13124404  0.03608795  0.77050100    -0.08600
C1780       C  0.11539077  0.06993717  0.76172568    -0.06000
C1781       C  0.13516097  0.10347825  0.76347001    -0.00100
C1782       C  0.17248927  0.10369846  0.77377826    -0.08500
C1783       C  0.19566548  0.13912071  0.77558313     0.61800
H1784       H  0.21771012  0.06985076  0.78815537     0.12500
H1785       H  0.08710456  0.07060912  0.75333744     0.12500
C1786       C  0.10754710  0.00104318  0.76811209     0.62100
F1787       F  0.23216998  0.13242559  0.78388006    -0.23100
F1788       F  0.18067737  0.16281527  0.79767735    -0.20400
F1789       F  0.19625507  0.15626829  0.74693319    -0.20100
F1790       F  0.10220714  0.98607541  0.79737797    -0.20200
F1791       F  0.12485732  0.97557945  0.74877864    -0.20500
F1792       F  0.07271469  0.00783086  0.75587022    -0.23200
C1793       C  0.15561016  0.59560391  0.50323745    -0.06000
C1794       C  0.16874159  0.60013805  0.53397886    -0.00100
C1795       C  0.15433752  0.62951597  0.55241867    -0.08600
C1796       C  0.13066036  0.65543401  0.53855718    -0.06000
C1797       C  0.12061634  0.65302096  0.50701845    -0.00100
C1798       C  0.13205172  0.62195909  0.48931981    -0.08500
C1799       C  0.12083174  0.61802155  0.45551695     0.61800
H1800       H  0.16683155  0.57325262  0.48915691     0.12500
H1801       H  0.12678529  0.67437281  0.05148349     0.12500
C1802       C  0.16406649  0.63556314  0.58643025     0.62100
F1803       F  0.13349763  0.58528547  0.44241137    -0.23100
F1804       F  0.13545167  0.64721417  0.43856311    -0.20400
F1805       F  0.08824118  0.61398835  0.95271273    -0.20100
F1806       F  0.18475537  0.66786847  0.58947357    -0.20200
F1807       F  0.18403293  0.60665487  0.59874652    -0.20500
F1808       F  0.13160019  0.63899320  0.60373804    -0.23200
C1809       C  0.37564175  0.83369498  0.72938523    -0.06000
C1810       C  0.40155499  0.82393297  0.75186514    -0.00100
C1811       C  0.40317956  0.84499626  0.78006519    -0.08600
C1812       C  0.37552782  0.87199175  0.78611121    -0.06000
C1813       C  0.34680251  0.87839913  0.76492662    -0.00100
C1814       C  0.34818519  0.86028140  0.73534732    -0.08500
C1815       C  0.31940842  0.86698958  0.71053734     0.61800
H1816       H  0.37515154  0.81787934  0.70782417     0.12500
H1817       H  0.37425734  0.88590288  0.80853430     0.12500
C1818       C  0.43143169  0.83680777  0.80502105     0.62100
F1819       F  0.32872807  0.85037867  0.68237873    -0.23100
F1820       F  0.31675630  0.90454204  0.70549607    -0.20400
F1821       F  0.28549991  0.85248736  0.72003261    -0.20100
F1822       F  0.46697476  0.83707765  0.79241314    -0.20200
F1823       F  0.42369417  0.80259815  0.81764689    -0.20500
F1824       F  0.43051768  0.86280735  0.82889566    -0.23200
C1825       C  0.36070140  0.68720810  0.63963638    -0.06000
C1826       C  0.35408231  0.67464968  0.67016816    -0.00100
C1827       C  0.32552348  0.64784024  0.67496673    -0.08600
C1828       C  0.30915099  0.63054991  0.64872282    -0.06000
C1829       C  0.31936327  0.63980994  0.61798284    -0.00100
C1830       C  0.34345293  0.67072224  0.61342563    -0.08500
C1831       C  0.35302891  0.68487153  0.58115609     0.61800
H1832       H  0.38167003  0.70854262  0.63627737     0.12500
H1833       H  0.28982416  0.60779455  0.65208510     0.12500
C1834       C  0.31388095  0.63567672  0.70736717     0.62100
F1835       F  0.37599547  0.71586181  0.58223463    -0.23100
F1836       F  0.32075669  0.69450862  0.56595381    -0.20400
F1837       F  0.37125745  0.65774929  0.56433061    -0.20100
F1838       F  0.28431155  0.61079567  0.70665411    -0.20200
F1839       F  0.30291312  0.66615500  0.72473369    -0.20500
F1840       F  0.34327408  0.61869726  0.72179758    -0.23200
C1841       C  0.14656622  0.37152390  0.78557452    -0.06000
C1842       C  0.17768258  0.37669184  0.76617839    -0.00100
C1843       C  0.17741142  0.36078507  0.73581652    -0.08600
C1844       C  0.14789440  0.33745603  0.72711154    -0.06000
C1845       C  0.11948590  0.32789024  0.74800493    -0.00100
C1846       C  0.11693107  0.34754710  0.77689648    -0.08500
C1847       C  0.08612989  0.34041841  0.80040095     0.61800
H1848       H  0.14696097  0.38414219  0.80855797     0.12500
H1849       H  0.14868146  0.32339488  0.70472050     0.12500
C1850       C  0.20908437  0.36659557  0.71302462     0.62100
F1851       F  0.08448391  0.36835868  0.82265237    -0.23100
F1852       F  0.09290920  0.30755663  0.81533375    -0.20400
F1853       F  0.05186920  0.33880205  0.78597986    -0.20100
F1854       F  0.24114470  0.35162420  0.72499368    -0.20200
F1855       F  0.21353366  0.40401935  0.70801360    -0.20500
F1856       F  0.20256615  0.34982122  0.68442961    -0.23200
C1857       C  0.36659106  0.60206056  0.79999466    -0.06000
C1858       C  0.39291029  0.59772236  0.77582878    -0.00100
C1859       C  0.39918343  0.56170456  0.76319727    -0.08600
C1860       C  0.37814424  0.53185197  0.77484229    -0.06000
C1861       C  0.35057344  0.53662069  0.79771616    -0.00100
C1862       C  0.34484912  0.57219054  0.81087254    -0.08500
C1863       C  0.31603248  0.57869148  0.83620087     0.61800
H1864       H  0.36182362  0.62953038  0.80939884     0.12500
H1865       H  0.38186081  0.50443972  0.76504307     0.12500
C1866       C  0.42713396  0.55426642  0.73711877     0.62100
F1867       F  0.31794696  0.61435948  0.84820403    -0.23100
F1868       F  0.32175107  0.55437388  0.86038633    -0.20400
F1869       F  0.28083113  0.57333687  0.82406822    -0.20100
F1870       F  0.46119192  0.57019287  0.74432596    -0.20200
F1871       F  0.41417133  0.56855491  0.70947506    -0.20500
F1872       F  0.43279361  0.51677325  0.73243972    -0.23200
C1873       C  0.25029613  0.48551628  0.69169228    -0.06000
C1874       C  0.27422852  0.45589873  0.69847752    -0.00100
C1875       C  0.29354813  0.43822299  0.67365391    -0.08600
C1876       C  0.28941201  0.45198408  0.64327090    -0.06000
C1877       C  0.26670984  0.48249960  0.63672629    -0.00100
C1878       C  0.24594699  0.49897672  0.66115582    -0.08500
C1879       C  0.22021293  0.53118521  0.65513444     0.61800
H1880       H  0.23494949  0.49823112  0.71070741     0.12500
H1881       H  0.30500128  0.43962025  0.62421165     0.12500
C1882       C  0.31985075  0.40625179  0.67912674     0.62100
F1883       F  0.20399685  0.54441530  0.68233134    -0.23100
F1884       F  0.19207112  0.51982769  0.63532436    -0.20400
F1885       F  0.23987728  0.55997702  0.64155988    -0.20100
F1886       F  0.29992541  0.37554883  0.68893338    -0.20200
F1887       F  0.34570521  0.41612803  0.70149224    -0.20500
F1888       F  0.33910893  0.39636068  0.65229961    -0.23200
C1889       C  0.22982558  0.48690026  0.94361177    -0.06000
C1890       C  0.24476413  0.52295552  0.94696137    -0.00100
C1891       C  0.24791237  0.54497824  0.91989772    -0.08600
C1892       C  0.24626052  0.52708293  0.89058371    -0.06000
C1893       C  0.23878415  0.48899156  0.88780299    -0.00100
C1894       C  0.22557975  0.46995995  0.91428371    -0.08500
C1895       C  0.20513054  0.43320894  0.91275555     0.61800
H1896       H  0.22241944  0.47121462  0.96421781     0.12500
H1897       H  0.25275368  0.54226286  0.86968041     0.12500
C1898       C  0.25330911  0.58648861  0.92167165     0.62100
F1899       F  0.21980830  0.40912330  0.93413618    -0.23100
F1900       F  0.20657813  0.41707472  0.88349183    -0.20400
F1901       F  0.16816067  0.43891011  0.92046293    -0.20100
F1902       F  0.28729778  0.59469414  0.93475452    -0.20200
F1903       F  0.22518864  0.60183844  0.93965671    -0.20500
F1904       F  0.25220600  0.60255459  0.89252663    -0.23200
C1905       C  0.39720150  0.15159956  0.53843683    -0.06000
C1906       C  0.40778602  0.15029642  0.50683103    -0.00100
C1907       C  0.39112610  0.12003624  0.98325927    -0.08600
C1908       C  0.36515962  0.09449129  0.99546823    -0.06000
C1909       C  0.35418301  0.10009521  0.53081499    -0.00100
C1910       C  0.36979431  0.12741948  0.55058395    -0.08500
C1911       C  0.35422855  0.13379521  0.58303572     0.61800
H1912       H  0.40741072  0.17434957  0.55267751     0.12500
H1913       H  0.34809800  0.07834337  0.97960680     0.12500
C1914       C  0.39790691  0.12218798  0.94838662     0.62100
F1915       F  0.37577168  0.15872402  0.59987977    -0.23100
F1916       F  0.35306810  0.10070384  0.59900090    -0.20400
F1917       F  0.31859934  0.14771427  0.58097774    -0.20100
F1918       F  0.43551525  0.11809159  0.94226698    -0.20200
F1919       F  0.38651275  0.15602058  0.93726874    -0.20500
F1920       F  0.37878917  0.09462332  0.93237774    -0.23200
C1921       C  0.32647392  0.30975090  0.92217733    -0.06000
C1922       C  0.35396395  0.28505458  0.91211613    -0.00100
C1923       C  0.35585164  0.27601384  0.87994842    -0.08600
C1924       C  0.33656097  0.29804627  0.85840754    -0.06000
C1925       C  0.31325728  0.32699702  0.86840819    -0.00100
C1926       C  0.30508493  0.32978126  0.90083157    -0.08500
C1927       C  0.27486916  0.35464584  0.91334209     0.61800
H1928       H  0.32356601  0.31551821  0.94689150     0.12500
H1929       H  0.34132495  0.29379441  0.83371266     0.12500
C1930       C  0.37816185  0.24345673  0.86823113     0.62100
F1931       F  0.26270755  0.34315744  0.94243333    -0.23100
F1932       F  0.24462362  0.35345960  0.89356960    -0.20400
F1933       F  0.28836108  0.39050508  0.91601704    -0.20100
F1934       F  0.37844913  0.21581518  0.89035609    -0.20200
F1935       F  0.41422344  0.25472935  0.86159899    -0.20500
F1936       F  0.36234847  0.22857343  0.84157592    -0.23200
C1937       C  0.39888900  0.40311737  0.99588373    -0.06000
C1938       C  0.38459655  0.37297862  0.51061068    -0.00100
C1939       C  0.35788290  0.37345468  0.53533931    -0.08600
C1940       C  0.33873307  0.40661466  0.54192610    -0.06000
C1941       C  0.34546392  0.43921256  0.52513961    -0.00100
C1942       C  0.37167342  0.43874435  0.50026279    -0.08500
C1943       C  0.39224398  0.47128139  0.98429101     0.61800
H1944       H  0.41996815  0.40208933  0.97773982     0.12500
H1945       H  0.31870117  0.40762378  0.56089603     0.12500
C1946       C  0.34894372  0.33935812  0.55464251     0.62100
F1947       F  0.41525966  0.46274024  0.95927201    -0.23100
F1948       F  0.41096537  0.49648129  0.00302680    -0.20400
F1949       F  0.36050842  0.48745541  0.97265634    -0.20100
F1950       F  0.32053467  0.34570249  0.57595963    -0.20200
F1951       F  0.38009435  0.32912854  0.57114344    -0.20500
F1952       F  0.33770071  0.31052270  0.53537673    -0.23200
C1953       C  0.89148200  0.34566994  0.98570197    -0.06000
C1954       C  0.89899900  0.32500951  0.51256522    -0.00100
C1955       C  0.87880306  0.32381434  0.54133752    -0.08600
C1956       C  0.85404851  0.35223377  0.54894732    -0.06000
C1957       C  0.84796105  0.38185208  0.52914229    -0.00100
C1958       C  0.87138516  0.38593740  0.50245761    -0.08500
C1959       C  0.84959695  0.39580718  0.96625797     0.61800
H1960       H  0.89922799  0.34011797  0.96168115     0.12500
H1961       H  0.83693567  0.35028660  0.56978437     0.12500
C1962       C  0.88271290  0.29273447  0.56439178     0.62100
F1963       F  0.87255818  0.39463064  0.94020827    -0.23100
F1964       F  0.84554474  0.43254542  0.97475745    -0.20400
F1965       F  0.83442442  0.42104572  0.46842624    -0.20100
F1966       F  0.91952905  0.29073171  0.57283923    -0.20200
F1967       F  0.87036607  0.25986194  0.55128933    -0.20500
F1968       F  0.86220581  0.29847300  0.59144237    -0.23200
C1969       C  0.58773403  0.38476360  0.51927179    -0.06000
C1970       C  0.62231279  0.37500863  0.50613835    -0.00100
C1971       C  0.62394885  0.34526071  0.48427402    -0.08600
C1972       C  0.59196784  0.32412956  0.97587691    -0.06000
C1973       C  0.55644590  0.33577962  0.49018932    -0.00100
C1974       C  0.55467617  0.36554139  0.51188664    -0.08500
C1975       C  0.51853665  0.37597296  0.52834063     0.61800
H1976       H  0.58692014  0.40736342  0.53599256     0.12500
H1977       H  0.59182016  0.30383943  0.95715541     0.12500
C1978       C  0.66072487  0.33311641  0.96597271     0.62100
F1979       F  0.52425717  0.40215621  0.55158896    -0.23100
F1980       F  0.50262146  0.34497448  0.54197651    -0.20400
F1981       F  0.49558200  0.37994113  0.01651399    -0.20100
F1982       F  0.68515569  0.32324315  0.49325698    -0.20200
F1983       F  0.67390249  0.36392109  0.95027308    -0.20500
F1984       F  0.65489589  0.30527994  0.94412533    -0.23200
C1985       C  0.66929748  0.10355708  0.73991512    -0.06000
C1986       C  0.67000177  0.09727839  0.77218839    -0.00100
C1987       C  0.64322654  0.11470044  0.79149627    -0.08600
C1988       C  0.61742625  0.13901485  0.77792213    -0.06000
C1989       C  0.61898308  0.14782684  0.74600140    -0.00100
C1990       C  0.64437869  0.12870305  0.72643875    -0.08500
C1991       C  0.64564348  0.13533988  0.69157240     0.61800
H1992       H  0.69072131  0.09106540  0.72556205     0.12500
H1993       H  0.59813980  0.15405009  0.79273999     0.12500
C1994       C  0.64355674  0.10927113  0.82646036     0.62100
F1995       F  0.66879694  0.11049338  0.67638191    -0.23100
F1996       F  0.65870565  0.17068159  0.68549455    -0.20400
F1997       F  0.61025821  0.13119028  0.67944134    -0.20100
F1998       F  0.67586024  0.12438855  0.83870388    -0.20200
F1999       F  0.64213103  0.07185921  0.83304854    -0.20500
F2000       F  0.61346996  0.12608146  0.84093217    -0.23200
C2001       C  0.40045144  0.33051148  0.78027648    -0.06000
C2002       C  0.40221857  0.36917510  0.77936151    -0.00100
C2003       C  0.43512462  0.38700727  0.76936175    -0.08600
C2004       C  0.46494309  0.36518192  0.75869988    -0.06000
C2005       C  0.46312000  0.32607311  0.75847833    -0.00100
C2006       C  0.43058241  0.30837833  0.77076405    -0.08500
C2007       C  0.42738352  0.26669566  0.77497275     0.61800
H2008       H  0.37479759  0.31774796  0.78837569     0.12500
H2009       H  0.48970840  0.37883526  0.74985524     0.12500
C2010       C  0.43810279  0.42885766  0.76944933     0.62100
F2011       F  0.39506737  0.25679723  0.79063746    -0.23100
F2012       F  0.45709060  0.25428190  0.79219982    -0.20400
F2013       F  0.42670956  0.24889916  0.74640542    -0.20100
F2014       F  0.43154554  0.44235370  0.79922619    -0.20200
F2015       F  0.41191989  0.44298046  0.74945585    -0.20500
F2016       F  0.47300678  0.44108549  0.75994626    -0.23200
C2017       C  0.52796916  0.20471088  0.84077361    -0.06000
C2018       C  0.55653469  0.23004921  0.83284938    -0.00100
C2019       C  0.57220543  0.25268151  0.85646902    -0.08600
C2020       C  0.55527152  0.25280370  0.88615897    -0.06000
C2021       C  0.52408423  0.23039589  0.89305429    -0.00100
C2022       C  0.51192698  0.20393977  0.87085474    -0.08500
C2023       C  0.48140403  0.17615316  0.87855657     0.61800
H2024       H  0.51704267  0.18669341  0.82265749     0.12500
H2025       H  0.56493615  0.27212507  0.90383612     0.12500
C2026       C  0.60471388  0.27855869  0.84986209     0.62100
F2027       F  0.47278849  0.15367556  0.85329339    -0.23100
F2028       F  0.44948860  0.19434531  0.88771278    -0.20400
F2029       F  0.49297682  0.15382934  0.90256445    -0.20100
F2030       F  0.61654962  0.29694617  0.87648029    -0.20200
F2031       F  0.59425126  0.30472892  0.82842933    -0.20500
F2032       F  0.63443378  0.25855832  0.83817260    -0.23200
C2033       C  0.51711046  0.21954901  0.62262504    -0.06000
C2034       C  0.49789959  0.24094928  0.64464393    -0.00100
C2035       C  0.46491008  0.25950169  0.63576468    -0.08600
C2036       C  0.45403692  0.25828947  0.60438539    -0.06000
C2037       C  0.47547917  0.24010889  0.58174205    -0.00100
C2038       C  0.50676260  0.21902840  0.59106990    -0.08500
C2039       C  0.52964232  0.19638313  0.56801644     0.61800
H2040       H  0.54206487  0.20547838  0.62989701     0.12500
H2041       H  0.42989943  0.27358475  0.59697334     0.12500
C2042       C  0.44131359  0.28089654  0.65910624     0.62100
F2043       F  0.55401408  0.17307575  0.58297845    -0.23100
F2044       F  0.55051338  0.21961661  0.54915671    -0.20400
F2045       F  0.50632574  0.17465196  0.54985508    -0.20100
F2046       F  0.45911861  0.31351627  0.66754205    -0.20200
F2047       F  0.43516076  0.25959699  0.68523403    -0.20500
F2048       F  0.40694233  0.28982337  0.64697611    -0.23200
C2049       C  0.67152182  0.30833400  0.60027216    -0.06000
C2050       C  0.69904367  0.33435001  0.60870125    -0.00100
C2051       C  0.70986495  0.33677300  0.64038231    -0.08600
C2052       C  0.68837322  0.31835626  0.66312146    -0.06000
C2053       C  0.65765760  0.29598271  0.65509202    -0.00100
C2054       C  0.65088070  0.28859474  0.62299297    -0.08500
C2055       C  0.62139757  0.26087625  0.61254727     0.61800
H2056       H  0.66386735  0.30595046  0.57596372     0.12500
H2057       H  0.69449851  0.32323298  0.68752084     0.12500
C2058       C  0.74268772  0.36011500  0.65115391     0.62100
F2059       F  0.62610061  0.25114479  0.58150136    -0.23100
F2060       F  0.58634498  0.27585962  0.61612628    -0.20400
F2061       F  0.62375318  0.22893236  0.62998316    -0.20100
F2062       F  0.73001550  0.39319837  0.66352075    -0.20200
F2063       F  0.76734608  0.36733223  0.62698642    -0.20500
F2064       F  0.76203474  0.34150105  0.67387734    -0.23200
C2065       C  0.85920708  0.59909739  0.74541167    -0.06000
C2066       C  0.84978851  0.60045013  0.77730903    -0.00100
C2067       C  0.86791069  0.62642923  0.79699157    -0.08600
C2068       C  0.89301425  0.65194880  0.78361487    -0.06000
C2069       C  0.89906555  0.65330329  0.75128177    -0.00100
C2070       C  0.88309803  0.62581870  0.73188452    -0.08500
C2071       C  0.89043949  0.62570249  0.69709080     0.61800
H2072       H  0.84506658  0.57904755  0.73064948     0.12500
H2073       H  0.90574636  0.67312303  0.79812827     0.12500
C2074       C  0.85979671  0.62811149  0.83174766     0.62100
F2075       F  0.87374311  0.59560719  0.68245675    -0.23100
F2076       F  0.92839201  0.62411703  0.69157285    -0.20400
F2077       F  0.87665330  0.65766857  0.68413954    -0.20100
F2078       F  0.86277586  0.59312824  0.84430872    -0.20200
F2079       F  0.82423981  0.64120022  0.83706984    -0.20500
F2080       F  0.88452954  0.65138691  0.84714157    -0.23200
C2081       C  0.67409031  0.37039445  0.76094126    -0.06000
C2082       C  0.63538825  0.36970664  0.76451050    -0.00100
C2083       C  0.61679586  0.40105797  0.77634141    -0.08600
C2084       C  0.63805692  0.43224240  0.78520923    -0.06000
C2085       C  0.67713016  0.43357828  0.78137224    -0.00100
C2086       C  0.69548094  0.40205577  0.76836510    -0.08500
C2087       C  0.73692988  0.40165236  0.76084698     0.61800
H2088       H  0.68729848  0.34601975  0.75118304     0.12500
H2089       H  0.62395419  0.45616983  0.79478631     0.12500
C2090       C  0.57465363  0.40156666  0.77899675     0.62100
F2091       F  0.74727668  0.36974986  0.74501860    -0.23100
F2092       F  0.75722395  0.40333317  0.78799724    -0.20400
F2093       F  0.74614533  0.43137720  0.74213355    -0.20100
F2094       F  0.56233133  0.37200643  0.79671847    -0.20200
F2095       F  0.55943942  0.39888485  0.74957597    -0.20500
F2096       F  0.56194456  0.43386566  0.79283724    -0.23200
C2097       C  0.62992152  0.63927900  0.75185620    -0.06000
C2098       C  0.62606156  0.60315888  0.76313603    -0.00100
C2099       C  0.59036105  0.58648311  0.76447333    -0.08600
C2100       C  0.55924119  0.60782309  0.75660401    -0.06000
C2101       C  0.56257087  0.64515758  0.74731793    -0.00100
C2102       C  0.59899660  0.66097742  0.74424681    -0.08500
C2103       C  0.60606848  0.70049100  0.73349412     0.61800
H2104       H  0.65771498  0.65110306  0.75055330     0.12500
H2105       H  0.53179939  0.59537533  0.75835247     0.12500
C2106       C  0.58523495  0.54605418  0.77318500     0.62100
F2107       F  0.64371258  0.70870193  0.73087623    -0.23100
F2108       F  0.59090725  0.72520050  0.75473875    -0.20400
F2109       F  0.59054763  0.70559526  0.70451893    -0.20100
F2110       F  0.59273016  0.54132973  0.80442082    -0.20200
F2111       F  0.60912097  0.52437452  0.75554723    -0.20500
F2112       F  0.54923161  0.53365197  0.76778037    -0.23200
C2113       C  0.79069474  0.50752612  0.68376792    -0.06000
C2114       C  0.76107406  0.52930668  0.69476262    -0.00100
C2115       C  0.73104182  0.53726281  0.67510953    -0.08600
C2116       C  0.73054801  0.52117981  0.64548554    -0.06000
C2117       C  0.75869323  0.49717278  0.63487847    -0.00100
C2118       C  0.79028484  0.49140766  0.65375103    -0.08500
C2119       C  0.82236487  0.46726560  0.64312540     0.61800
H2120       H  0.81334938  0.50190647  0.69951900     0.12500
H2121       H  0.70654619  0.52562288  0.63099231     0.12500
C2122       C  0.69799734  0.55985726  0.68623398     0.62100
F2123       F  0.84938283  0.46442860  0.66580757    -0.23100
F2124       F  0.83892748  0.48237167  0.61690469    -0.20400
F2125       F  0.80946050  0.43198645  0.63626940    -0.20100
F2126       F  0.68047285  0.54173271  0.71058712    -0.20200
F2127       F  0.67201651  0.56479475  0.66298962    -0.20500
F2128       F  0.70999361  0.59451202  0.69597646    -0.23200
C2129       C  0.77769021  0.50842110  0.90825836    -0.06000
C2130       C  0.76933145  0.48384541  0.88411643    -0.00100
C2131       C  0.76406678  0.44582398  0.89035472    -0.08600
C2132       C  0.76244815  0.43421222  0.92145204    -0.06000
C2133       C  0.76692778  0.45946506  0.94619552    -0.00100
C2134       C  0.77751981  0.49693478  0.93940077    -0.08500
C2135       C  0.78786147  0.52551729  0.96425155     0.61800
H2136       H  0.78197766  0.53736332  0.90262770     0.12500
H2137       H  0.75590554  0.40555848  0.92653046     0.12500
C2138       C  0.75976660  0.41790149  0.86413446     0.62100
F2139       F  0.80399320  0.55690621  0.95138212    -0.23100
F2140       F  0.81347277  0.51083851  0.98455078    -0.20400
F2141       F  0.75634251  0.53648678  0.98046780    -0.20100
F2142       F  0.78873378  0.42250292  0.84305582    -0.20200
F2143       F  0.72622179  0.42307767  0.84932317    -0.20500
F2144       F  0.76068334  0.38185966  0.87483679    -0.23200
C2145       C  0.62793940  0.85071336  0.99987692    -0.06000
C2146       C  0.61724341  0.82834689  0.51469345    -0.00100
C2147       C  0.62882876  0.83269507  0.54627597    -0.08600
C2148       C  0.65363777  0.86157643  0.55430519    -0.06000
C2149       C  0.66679558  0.88632044  0.53203261    -0.00100
C2150       C  0.65020953  0.88110178  0.00904538    -0.08500
C2151       C  0.65556805  0.91262754  0.98647506     0.61800
H2152       H  0.61517527  0.85044052  0.97706311     0.12500
H2153       H  0.66639252  0.86226640  0.57710654     0.12500
C2154       C  0.61772207  0.80553023  0.57118520     0.62100
F2155       F  0.62195938  0.92123630  0.97285892    -0.23100
F2156       F  0.68050624  0.90219844  0.96341638    -0.20400
F2157       F  0.66874824  0.94411673  0.00146647    -0.20100
F2158       F  0.63554625  0.77241327  0.56567728    -0.20200
F2159       F  0.57958183  0.80084520  0.57090794    -0.20500
F2160       F  0.62747868  0.81783798  0.60068579    -0.23200
C2161       C  0.42956175  0.65006169  0.47290673    -0.06000
C2162       C  0.45994417  0.65007602  0.49320502    -0.00100
C2163       C  0.45788251  0.62920433  0.52089471    -0.08600
C2164       C  0.42534497  0.60874581  0.52716684    -0.06000
C2165       C  0.39395920  0.60945202  0.50761713    -0.00100
C2166       C  0.39653712  0.62993571  0.47944317    -0.08500
C2167       C  0.36530543  0.63021164  0.45599244     0.61800
H2168       H  0.43208945  0.66594921  0.45168732     0.12500
H2169       H  0.42387203  0.59301524  0.54847231     0.12500
C2170       C  0.50162826  0.60324279  0.02470535     0.62100
F2171       F  0.37480249  0.64969262  0.42945053    -0.23100
F2172       F  0.33419225  0.64672505  0.46900172    -0.20400
F2173       F  0.34661044  0.62846022  0.95039497    -0.20100
F2174       F  0.49317771  0.66666080  0.55536680    -0.20200
F2175       F  0.52586335  0.58724290  0.00347486    -0.20500
F2176       F  0.49432713  0.57760706  0.04781683    -0.23200
C2177       C  0.51276750  0.75494382  0.59417128    -0.06000
C2178       C  0.54181720  0.73083444  0.58565284    -0.00100
C2179       C  0.55773432  0.70773827  0.60827671    -0.08600
C2180       C  0.54337439  0.70920967  0.63865056    -0.06000
C2181       C  0.51333665  0.73206572  0.64692074    -0.00100
C2182       C  0.49798516  0.75585266  0.62459002    -0.08500
C2183       C  0.46499912  0.78032470  0.63231720     0.61800
H2184       H  0.50106670  0.77246742  0.57645021     0.12500
H2185       H  0.55419889  0.69069154  0.65599674     0.12500
C2186       C  0.58745172  0.67948665  0.60010432     0.62100
F2187       F  0.45344778  0.80012232  0.60670710    -0.23100
F2188       F  0.47467319  0.80536658  0.65547245    -0.20400
F2189       F  0.43534543  0.75879065  0.64248869    -0.20100
F2190       F  0.61960880  0.69722279  0.59015856    -0.20200
F2191       F  0.57452524  0.65614011  0.57683653    -0.20500
F2192       F  0.59656962  0.65784089  0.62535748    -0.23200
C2193       C  0.47606021  0.73107691  0.89365553    -0.06000
C2194       C  0.51123240  0.74797730  0.89686511    -0.00100
C2195       C  0.52783622  0.76588032  0.87120034    -0.08600
C2196       C  0.51011640  0.76308176  0.84212931    -0.06000
C2197       C  0.47707764  0.74209989  0.83803750    -0.00100
C2198       C  0.45873075  0.72726732  0.86452834    -0.08500
C2199       C  0.42298035  0.70472503  0.86197020     0.61800
H2200       H  0.46393540  0.71768522  0.91387413     0.12500
H2201       H  0.52326873  0.77540741  0.82187546     0.12500
C2202       C  0.56502784  0.78576614  0.87426658     0.62100
F2203       F  0.41092579  0.69179884  0.89063989    -0.23100
F2204       F  0.42877679  0.67441250  0.84272192    -0.20400
F2205       F  0.39503185  0.72634156  0.84997513    -0.20100
F2206       F  0.59217215  0.76095113  0.88272069    -0.20200
F2207       F  0.56232438  0.81312754  0.89687759    -0.20500
F2208       F  0.57603340  0.80221578  0.84661923    -0.23200
C2209       C  0.67206220  0.69350963  0.88698089    -0.06000
C2210       C  0.67721797  0.68240374  0.91786719    -0.00100
C2211       C  0.70438953  0.65513580  0.92395188    -0.08600
C2212       C  0.71802971  0.63382937  0.89873575    -0.06000
C2213       C  0.70740046  0.64082344  0.86788889    -0.00100
C2214       C  0.68702698  0.67351919  0.86168980    -0.08500
C2215       C  0.67808015  0.68585118  0.82890025     0.61800
H2216       H  0.65308827  0.71600362  0.88273173     0.12500
H2217       H  0.73570825  0.61031743  0.90312648     0.12500
C2218       C  0.71851323  0.64784860  0.95652550     0.62100
F2219       F  0.65878910  0.71887633  0.82869140    -0.23100
F2220       F  0.65622994  0.65927338  0.81449653    -0.20400
F2221       F  0.71070202  0.69119731  0.81212778    -0.20100
F2222       F  0.69101578  0.63172829  0.97448638    -0.20200
F2223       F  0.72966142  0.68088218  0.97022840    -0.20500
F2224       F  0.74876642  0.62434581  0.95610551    -0.23200
C2225       C  0.65934592  0.60835280  0.53167202    -0.06000
C2226       C  0.62878587  0.60308698  0.51181100    -0.00100
C2227       C  0.61948995  0.56686512  0.50143470    -0.08600
C2228       C  0.64043061  0.53708672  0.51243716    -0.06000
C2229       C  0.67152546  0.54233669  0.53179711    -0.00100
C2230       C  0.68194554  0.57890365  0.54086898    -0.08500
C2231       C  0.71670354  0.58745164  0.55971042     0.61800
H2232       H  0.66663118  0.63636089  0.53865377     0.12500
H2233       H  0.63334103  0.50920691  0.50497633     0.12500
C2234       C  0.58803388  0.55931786  0.47870464     0.62100
F2235       F  0.72000033  0.62474764  0.56705874    -0.23100
F2236       F  0.74803855  0.57763354  0.54275109    -0.20400
F2237       F  0.71560424  0.56817871  0.58729622    -0.20100
F2238       F  0.64322696  0.58790934  0.93865289    -0.20200
F2239       F  0.55571994  0.57588664  0.48917430    -0.20500
F2240       F  0.58075819  0.52180051  0.47523284    -0.23200
loop_ 
_geom_bond_atom_site_label_1 
_geom_bond_atom_site_label_2 
_geom_bond_distance 
_geom_bond_site_symmetry_2 
_ccdc_geom_bond_type 
O1          Cr19   2.030       .  S
O1            C9   1.271       .  A
O2        Cr1139   1.958   1_554  S
O2            C3   1.254       .  A
C3            O4   1.262       .  A
C3         C1058   1.469       .  S
O4          Cr20   1.994       .  S
O5          Cr20   1.969       .  S
O5            C6   1.254   1_554  A
C6         O1127   1.257       .  A
C6         C1106   1.495   1_556  S
O7          Cr21   2.002       .  S
O7         C1126   1.257       .  A
O8          Cr21   1.972       .  S
O8            C9   1.260       .  A
C9         C2162   1.478       .  S
O10         Cr19   1.992       .  S
O10          C18   1.264       .  A
O11         Cr19   2.040       .  S
O11          C12   1.270       .  A
C12          O13   1.260       .  A
C12        C2146   1.495       .  S
O13       Cr1140   1.977       .  S
O14       Cr1140   2.048       .  S
O14          C15   1.277       .  A
C15          O16   1.265       .  A
C15        C1090   1.503       .  S
O16         Cr21   1.972       .  S
O17         Cr21   1.992       .  S
O17          C18   1.262       .  A
C18        C1074   1.472       .  S
Cr19       O1122   1.948       .  S
Cr19         O22   1.783       .  S
Cr20       O1133   1.969   1_554  S
Cr20       O1134   2.038   1_554  S
Cr20       O1142   1.766   1_554  S
Cr21         O22   1.769       .  S
O22       Cr1140   1.768       .  S
O23         Cr41   2.017       .  S
O23          C31   1.267       .  A
O24         Cr41   1.945       .  S
O24          C25   1.255       .  A
C25          O26   1.274       .  A
C25         C994   1.474       .  S
O26         Cr42   2.039       .  S
O27         Cr42   1.974       .  S
O27          C28   1.256       .  A
C28          O29   1.259       .  A
C28         C978   1.475       .  S
O29         Cr43   1.991       .  S
O30         Cr43   1.979       .  S
O30          C31   1.262       .  A
C31         C965   1.495       .  S
O32         Cr41   1.982       .  S
O32          C40   1.262       .  A
O33         Cr41   2.013       .  S
O33          C34   1.263       .  A
C34          O35   1.256       .  A
C34         C946   1.474       .  S
O35         Cr42   1.972       .  S
O36         Cr42   2.038       .  S
O36          C37   1.273       .  A
C37          O38   1.265       .  A
C37        C1093   1.503       .  S
O38         Cr43   1.985       .  S
O39         Cr43   1.997       .  S
O39          C40   1.263       .  A
C40        C1010   1.467       .  S
Cr41         O44   1.780       .  S
Cr42         O44   1.772       .  S
Cr43         O44   1.767       .  S
O45         Cr63   1.954       .  S
O45          C53   1.258       .  A
O46         Cr63   2.027       .  S
O46          C47   1.271       .  A
C47          O48   1.263       .  A
C47         C885   1.500       .  S
O48         Cr64   1.975       .  S
O49         Cr64   1.997       .  S
O49          C50   1.258       .  A
C50          O51   1.257       .  A
C50         C962   1.475       .  S
O51         Cr65   1.986       .  S
O52         Cr65   2.025       .  S
O52          C53   1.270       .  A
C53         C898   1.475       .  S
O54         Cr63   2.029       .  S
O54          C62   1.267       .  A
O55         Cr63   2.003       .  S
O55          C56   1.266       .  A
C56          O57   1.260       .  A
C56         C914   1.485       .  S
O57         Cr64   1.996       .  S
O58         Cr64   1.976       .  S
O58          C59   1.263       .  A
C59          O60   1.274       .  A
C59         C933   1.489       .  S
O60         Cr65   2.027       .  S
O61         Cr65   1.974       .  S
O61          C62   1.257       .  A
C62         C869   1.490       .  S
Cr63         O66   1.776       .  S
Cr64         O66   1.770       .  S
Cr65         O66   1.773       .  S
O67       Cr1205   1.941       .  S
O67          C75   1.250       .  A
O68         Cr85   2.035       .  S
O68          C69   1.274       .  A
C69          O70   1.260       .  A
C69        C1109   1.476       .  S
O70         Cr86   1.968       .  S
O71         Cr86   2.009       .  S
O71          C72   1.261       .  A
C72          O73   1.253       .  A
C72         C850   1.493       .  S
O73         Cr87   1.979       .  S
O74       Cr1207   2.031       .  S
O74          C75   1.273       .  A
C75        C1013   1.481       .  S
O76         Cr85   2.053       .  S
O76          C84   1.274       .  A
O77         Cr85   1.999       .  S
O77          C78   1.264       .  A
C78          O79   1.266       .  A
C78         C997   1.498       .  S
O79         Cr86   1.994       .  S
O80         Cr86   1.950       .  S
O80          C81   1.260       .  A
C81          O82   1.279       .  A
C81         C930   1.484       .  S
O82         Cr87   2.053       .  S
O83         Cr87   1.967       .  S
O83          C84   1.258       .  A
C84         C837   1.498       .  S
Cr85       O1187   1.935   1_554  S
Cr85         O88   1.773       .  S
Cr86         O88   1.761       .  S
Cr87       O1194   2.030   1_554  S
Cr87         O88   1.767       .  S
O89        Cr107   2.021       .  S
O89          C97   1.271       .  A
O90       Cr1227   1.957   1_554  S
O90          C91   1.255       .  A
C91          O92   1.273       .  A
C91         C917   1.486       .  S
O92        Cr108   2.036   1_554  S
O93        Cr108   1.985   1_554  S
O93          C94   1.258       .  A
C94        O1215   1.264   1_554  A
C94         C818   1.499       .  S
O95        Cr109   2.011       .  S
O95        C1214   1.264       .  A
O96        Cr109   1.967       .  S
O96          C97   1.260       .  A
C97        C1973   1.480       .  S
O98        Cr107   1.993       .  S
O98         C106   1.263       .  A
O99        Cr107   2.029       .  S
O99         C100   1.267       .  A
C100        O101   1.258       .  A
C100       C1906   1.480       .  S
O101      Cr1228   1.969       .  S
O102      Cr1228   2.035       .  S
O102        C103   1.275       .  A
C103        O104   1.260       .  A
C103        C802   1.487       .  S
O104       Cr109   1.968       .  S
O105       Cr109   1.992       .  S
O105        C106   1.264       .  A
C106        C901   1.481       .  S
Cr107      O1210   1.955       .  S
Cr107       O110   1.777       .  S
Cr108      O1221   1.973       .  S
Cr108      O1222   2.044       .  S
Cr108      O1230   1.769       .  S
Cr109       O110   1.764       .  S
O110      Cr1228   1.767       .  S
O111       Cr129   2.034       .  S
O111        C119   1.273       .  A
O112       Cr129   1.960       .  S
O112        C113   1.255       .  A
C113        O114   1.267       .  A
C113        C754   1.482       .  S
O114       Cr130   2.015       .  S
O115       Cr130   1.967       .  S
O115        C116   1.251       .  A
C116        O117   1.263       .  A
C116        C882   1.474       .  S
O117       Cr131   2.024       .  S
O118       Cr131   1.961       .  S
O118        C119   1.260       .  A
C119        C741   1.478       .  S
O120       Cr129   1.994       .  S
O120        C128   1.264       .  A
O121       Cr129   2.050       .  S
O121        C122   1.273       .  A
C122        O123   1.258       .  A
C122        C722   1.495       .  S
O123       Cr130   1.968       .  S
O124       Cr130   2.047       .  S
O124        C125   1.278       .  A
C125        O126   1.260       .  A
C125        C805   1.500       .  S
O126       Cr131   1.967       .  S
O127       Cr131   2.011       .  S
O127        C128   1.266       .  A
C128        C773   1.483       .  S
Cr129       O132   1.783       .  S
Cr130       O132   1.766       .  S
Cr131       O132   1.770       .  S
O133       Cr151   1.953       .  S
O133        C141   1.258       .  A
O134       Cr151   2.021       .  S
O134        C135   1.269       .  A
C135        O136   1.264       .  A
C135        C981   1.496       .  S
O136       Cr152   1.972       .  S
O137       Cr152   1.990       .  S
O137        C138   1.256       .  A
C138        O139   1.257       .  A
C138        C738   1.490       .  S
O139       Cr153   1.979       .  S
O140       Cr153   2.029       .  S
O140        C141   1.271       .  A
C141       C1077   1.486       .  S
O142       Cr151   2.034       .  S
O142        C150   1.267       .  A
O143       Cr151   1.993       .  S
O143        C144   1.263       .  A
C144        O145   1.259       .  A
C144       C1061   1.469       .  S
O145       Cr152   1.967       .  S
O146       Cr152   1.969       .  S
O146        C147   1.260       .  A
C147        O148   1.275       .  A
C147        C706   1.495       .  S
O148       Cr153   2.044       .  S
O149       Cr153   1.960       .  S
O149        C150   1.259       .  A
C150        C690   1.495       .  S
Cr151       O154   1.776       .  S
Cr152       O154   1.762       .  S
Cr153       O154   1.763       .  S
O155      Cr1293   1.955       .  S
O155        C163   1.260       .  A
O156       Cr173   2.034       .  S
O156        C157   1.275       .  A
C157        O158   1.262       .  A
C157        C821   1.491       .  S
O158       Cr174   1.974       .  S
O159       Cr174   1.991       .  S
O159        C160   1.261       .  A
C160        O161   1.259       .  A
C160       C1045   1.491       .  S
O161       Cr175   1.991       .  S
O162      Cr1295   2.048       .  S
O162        C163   1.276       .  A
C163        C770   1.499       .  S
O164       Cr173   2.034       .  S
O164        C172   1.268       .  A
O165       Cr173   1.998       .  S
O165        C166   1.264       .  A
C166        O167   1.261       .  A
C166        C757   1.483       .  S
O167       Cr174   1.988       .  S
O168       Cr174   1.963       .  S
O168        C169   1.261       .  A
C169        O170   1.277       .  A
C169        C709   1.495       .  S
O170       Cr175   2.050       .  S
O171       Cr175   1.969       .  S
O171        C172   1.256       .  A
C172        C674   1.487       .  S
Cr173      O1275   1.952   1_554  S
Cr173       O176   1.771       .  S
Cr174       O176   1.761       .  S
Cr175      O1282   2.049   1_554  S
Cr175       O176   1.771       .  S
O177       Cr195   2.015   1_655  S
O177        C185   1.271       .  A
O178       Cr195   1.951       .  S
O178        C179   1.256       .  A
C179        O180   1.276       .  A
C179        C613   1.484       .  S
O180       Cr196   2.042       .  S
O181       Cr196   1.967       .  S
O181        C182   1.252       .  A
C182        O183   1.263       .  A
C182        C661   1.480       .  S
O183       Cr197   2.013       .  S
O184       Cr197   1.964       .  S
O184        C185   1.258   1_455  A
C185        C594   1.488       .  S
O186       Cr195   1.993       .  S
O186        C194   1.265       .  A
O187       Cr195   2.038       .  S
O187        C188   1.266       .  A
C188        O189   1.256       .  A
C188        C725   1.498       .  S
O189       Cr196   1.958       .  S
O190       Cr196   2.049       .  S
O190        C191   1.277       .  A
C191        O192   1.262       .  A
C191        C645   1.497       .  S
O192       Cr197   1.970       .  S
O193       Cr197   2.004       .  S
O193        C194   1.264       .  A
C194        C626   1.477       .  S
Cr195       O198   1.780       .  S
Cr196       O198   1.765       .  S
Cr197       O198   1.770       .  S
O199       Cr217   1.997   1_565  S
O199        C207   1.262       .  A
O200      Cr1337   1.974       .  S
O200        C201   1.256       .  A
C201        O202   1.269       .  A
C201        C562   1.485       .  S
O202      Cr1338   2.016       .  S
O203       Cr218   1.990       .  S
O203        C204   1.258       .  A
C204        O205   1.261       .  A
C204        C549   1.478       .  S
O205       Cr219   1.988       .  S
O206       Cr219   1.993   1_565  S
O206        C207   1.259       .  A
C207        C530   1.482       .  S
O208       Cr217   2.009   1_565  S
O208        C216   1.264   1_565  A
O209       Cr217   2.017       .  S
O209        C210   1.269       .  A
C210        O211   1.257       .  A
C210        C789   1.486       .  S
O211       Cr218   1.970       .  S
O212       Cr218   2.022       .  S
O212        C213   1.272       .  A
C213        O214   1.261       .  A
C213        C642   1.485       .  S
O214       Cr219   1.987       .  S
O215       Cr219   1.956       .  S
O215        C216   1.257       .  A
C216        C581   1.474   1_545  S
Cr217      O1320   1.982   1_554  S
Cr217       O220   1.786       .  S
Cr218      O1322   2.012   1_554  S
Cr218       O220   1.770       .  S
Cr219       O220   1.779       .  S
O221      Cr1359   1.950   1_554  S
O221        C229   1.253       .  A
O222       Cr239   2.021       .  S
O222        C223   1.274       .  A
C223        O224   1.260       .  A
C223       C1586   1.488   1_455  S
O224       Cr240   1.968       .  S
O225       Cr240   2.003       .  S
O225       C1346   1.262       .  A
C226        O227   1.256       .  A
C226       O1345   1.263   1_554  A
C226        C533   1.503       .  S
O227       Cr241   1.986   1_554  S
O228       Cr241   2.038   1_554  S
O228        C229   1.274       .  A
C229        C498   1.488       .  S
O230       Cr239   2.042       .  S
O230        C238   1.270       .  A
O231       Cr239   2.004       .  S
O231        C232   1.266       .  A
C232        O233   1.263       .  A
C232        C514   1.487       .  S
O233       Cr240   2.000       .  S
O234       Cr240   1.957       .  S
O234        C235   1.262       .  A
C235        O236   1.279       .  A
C235        C482   1.494       .  S
O236      Cr1361   2.053       .  S
O237      Cr1361   1.968       .  S
O237        C238   1.256       .  A
C238       C1797   1.489       .  S
Cr239      O1341   1.946       .  S
Cr239       O242   1.772       .  S
Cr240       O242   1.763       .  S
Cr241      O1356   2.055       .  S
Cr241      O1357   1.970       .  S
Cr241      O1362   1.774       .  S
O242      Cr1361   1.771       .  S
O243       Cr261   1.946       .  S
O243        C251   1.249       .  A
O244       Cr261   2.030   1_545  S
O244        C245   1.277       .  A
C245        O246   1.259   1_545  A
C245        C658   1.498       .  S
O246       Cr262   1.964       .  S
O247       Cr262   2.016       .  S
O247        C248   1.261       .  A
C248        O249   1.246       .  A
C248        C450   1.478       .  S
O249       Cr263   1.955       .  S
O250       Cr263   2.020       .  S
O250        C251   1.267       .  A
C251        C578   1.467       .  S
O252       Cr261   2.064       .  S
O252        C260   1.276       .  A
O253       Cr261   1.989       .  S
O253        C254   1.265       .  A
C254        O255   1.261       .  A
C254        C565   1.470       .  S
O255       Cr262   1.991       .  S
O256       Cr262   1.970       .  S
O256        C257   1.263       .  A
C257        O258   1.276       .  A
C257        C485   1.498       .  S
O258       Cr263   2.045       .  S
O259       Cr263   1.957       .  S
O259        C260   1.253       .  A
C260        C693   1.497       .  S
Cr261       O264   1.777       .  S
Cr262       O264   1.768       .  S
Cr263       O264   1.759       .  S
O265       Cr283   2.008   1_455  S
O265        C273   1.270       .  A
O266       Cr283   1.956       .  S
O266        C267   1.257       .  A
C267        O268   1.277       .  A
C267        C517   1.493       .  S
O268       Cr284   2.051       .  S
O269       Cr284   1.975       .  S
O269        C270   1.255       .  A
C270        O271   1.264       .  A
C270        C434   1.487       .  S
O271       Cr285   2.007       .  S
O272       Cr285   1.979       .  S
O272        C273   1.260   1_655  A
C273        C453   1.484       .  S
O274       Cr283   1.995       .  S
O274        C282   1.264       .  A
O275       Cr283   2.016       .  S
O275        C276   1.264       .  A
C276        O277   1.254       .  A
C276        C949   1.472       .  S
O277       Cr284   1.965       .  S
O278       Cr284   2.048       .  S
O278        C279   1.276       .  A
C279        O280   1.264       .  A
C279        C421   1.498       .  S
O280       Cr285   1.970       .  S
O281       Cr285   2.014       .  S
O281        C282   1.266       .  A
C282        C501   1.485   1_655  S
Cr283       O286   1.774       .  S
Cr284       O286   1.769       .  S
Cr285       O286   1.765       .  S
O287       Cr305   1.971       .  S
O287        C295   1.257       .  A
O288      Cr1425   1.999       .  S
O288        C289   1.269       .  A
C289        O290   1.275       .  A
C289        C389   1.510       .  S
O290      Cr1426   2.011       .  S
O291       Cr306   1.990       .  S
O291        C292   1.252       .  A
C292        O293   1.259       .  A
C292        C469   1.499       .  S
O293       Cr307   1.999       .  S
O294       Cr307   1.977       .  S
O294        C295   1.259       .  A
C295        C373   1.463   1_565  S
O296       Cr305   2.003       .  S
O296        C304   1.265       .  A
O297       Cr305   1.997       .  S
O297        C298   1.260       .  A
C298        O299   1.253       .  A
C298       C1029   1.467       .  S
O299       Cr306   1.974       .  S
O300       Cr306   2.010       .  S
O300        C301   1.273       .  A
C301        O302   1.269       .  A
C301        C418   1.483       .  S
O302       Cr307   2.002       .  S
O303       Cr307   1.991       .  S
O303        C304   1.263       .  A
C304        C405   1.495       .  S
Cr305      O1408   2.006   1_554  S
Cr305       O308   1.788       .  S
Cr306      O1410   1.999   1_554  S
Cr306       O308   1.782       .  S
Cr307       O308   1.780       .  S
O309      Cr1447   1.936   1_554  S
O309        C317   1.247       .  A
O310      Cr1447   2.041   1_455  S
O310       C1431   1.277       .  A
C311        O312   1.261   1_455  A
C311       O1430   1.277       .  A
C311       C1666   1.471       .  S
O312       Cr328   1.962       .  S
O313       Cr328   1.997       .  S
O313       C1434   1.254       .  A
C314        O315   1.256   1_556  A
C314       O1433   1.254       .  A
C314        C370   1.476   1_556  S
O315       Cr329   1.981       .  S
O316       Cr329   2.036       .  S
O316        C317   1.273       .  A
C317        C629   1.490       .  S
O318       Cr327   2.056       .  S
O318        C326   1.275       .  A
O319       Cr327   2.005       .  S
O319        C320   1.265       .  A
C320        O321   1.259       .  A
C320        C610   1.488   1_655  S
O321       Cr328   1.983       .  S
O322       Cr328   1.963       .  S
O322        C323   1.262       .  A
C323        O324   1.282       .  A
C323        C354   1.496       .  S
O324      Cr1449   2.055       .  S
O325       Cr329   1.972   1_556  S
O325       C1446   1.258       .  A
C326       O1445   1.256       .  A
C326       C1954   1.501       .  S
Cr327      O1429   1.941       .  S
Cr327      O1430   2.038   1_655  S
Cr327       O330   1.782       .  S
Cr328       O330   1.767       .  S
Cr329      O1444   2.054   1_554  S
Cr329      O1450   1.769   1_554  S
O330      Cr1449   1.766       .  S
O331       Cr349   1.952       .  S
O331        C339   1.253       .  A
O332       Cr349   2.023   1_565  S
O332        C333   1.274       .  A
C333        O334   1.262   1_565  A
C333        C437   1.486       .  S
O334       Cr350   1.971       .  S
O335       Cr350   1.998       .  S
O335        C336   1.258       .  A
C336        O337   1.251       .  A
C336        C597   1.471       .  S
O337       Cr351   1.967       .  S
O338       Cr351   2.053       .  S
O338        C339   1.277       .  A
C339        C402   1.488       .  S
O340       Cr349   2.045       .  S
O340        C348   1.272       .  A
O341       Cr349   2.006       .  S
O341        C342   1.267       .  A
C342        O343   1.261       .  A
C342        C386   1.482   1_545  S
O343       Cr350   1.983       .  S
O344       Cr350   1.968       .  S
O344        C345   1.261       .  A
C345        O346   1.280       .  A
C345        C357   1.498       .  S
O346       Cr351   2.055       .  S
O347       Cr351   1.963       .  S
O347        C348   1.253       .  A
C348        C866   1.488       .  S
Cr349       O352   1.777       .  S
Cr350       O352   1.766       .  S
Cr351       O352   1.768       .  S
C353        C354   1.403       .  A
C353        C358   1.410       .  A
C353        H360   1.084       .  S
C354        C355   1.423       .  A
C355        C356   1.411       .  A
C355        C362   1.515       .  S
C356        C357   1.404       .  A
C356        H361   1.082       .  S
C357        C358   1.423       .  A
C358        C359   1.513       .  S
C359        F363   1.385       .  S
C359        F364   1.382       .  S
C359        F365   1.383       .  S
C362        F366   1.382       .  S
C362        F367   1.383       .  S
C362        F368   1.385       .  S
C369        C370   1.406       .  A
C369        C374   1.405       .  A
C369       H1496   1.083       .  S
C370        C371   1.421   1_554  A
C371        C372   1.402   1_556  A
C371        C378   1.520       .  S
C372        C373   1.397       .  A
C372        H377   1.084   1_554  S
C373        C374   1.413       .  A
C374        C375   1.519       .  S
C375        F380   1.382       .  S
C375       F1499   1.384       .  S
C375       F1501   1.383       .  S
H376       C1489   1.083       .  S
C378        F382   1.380       .  S
C378        F383   1.382       .  S
C378        F384   1.385       .  S
F379       C1495   1.382       .  S
F381       C1495   1.385       .  S
C385        C386   1.405       .  A
C385        C390   1.407       .  A
C385        H392   1.084       .  S
C386        C387   1.406       .  A
C387        C388   1.411       .  A
C387        C394   1.516   1_565  S
C388        C389   1.420       .  A
C388        H393   1.081       .  S
C389        C390   1.422       .  A
C390        C391   1.513       .  S
C391        F395   1.385       .  S
C391        F396   1.383       .  S
C391        F397   1.383       .  S
C394        F398   1.383       .  S
C394        F399   1.378       .  S
C394        F400   1.384       .  S
C401        C402   1.403       .  A
C401        C406   1.414       .  A
C401        H408   1.083       .  S
C402        C403   1.420       .  A
C403        C404   1.411   1_545  A
C403        C410   1.517       .  S
C404        C405   1.403       .  A
C404        H409   1.083       .  S
C405        C406   1.424   1_565  A
C406        C407   1.520   1_545  S
C407        F411   1.385   1_565  S
C407        F412   1.381   1_565  S
C407        F413   1.383       .  S
C410        F414   1.377       .  S
C410        F415   1.382   1_545  S
C410        F416   1.384   1_545  S
C417        C418   1.402       .  A
C417        C422   1.415       .  A
C417        H424   1.083       .  S
C418        C419   1.414       .  A
C419        C420   1.407       .  A
C419        C426   1.511       .  S
C420        C421   1.406       .  A
C420        H425   1.084       .  S
C421        C422   1.423       .  A
C422        C423   1.513       .  S
C423        F427   1.385       .  S
C423        F428   1.381       .  S
C423        F429   1.383       .  S
C426        F430   1.380       .  S
C426        F431   1.383       .  S
C426        F432   1.385       .  S
C433        C434   1.405       .  A
C433        C438   1.407       .  A
C433        H440   1.083       .  S
C434        C435   1.422       .  A
C435        C436   1.406       .  A
C435        C442   1.520       .  S
C436        C437   1.403       .  A
C436        H441   1.083       .  S
C437        C438   1.421       .  A
C438        C439   1.520       .  S
C439        F443   1.385       .  S
C439        F444   1.382   1_565  S
C439        F445   1.382       .  S
C442        F446   1.379       .  S
C442        F447   1.382       .  S
C442        F448   1.385       .  S
C449        C450   1.406       .  A
C449        C454   1.411       .  A
C449        H456   1.081       .  S
C450        C451   1.421       .  A
C451        C452   1.397       .  A
C451        C458   1.526       .  S
C452        C453   1.400       .  A
C452        H457   1.067       .  S
C453        C454   1.420       .  A
C454        C455   1.519       .  S
C455        F459   1.384       .  S
C455        F460   1.384   1_455  S
C455        F461   1.383   1_455  S
C458        F462   1.382       .  S
C458        F463   1.382       .  S
C458        F464   1.385       .  S
C465        C466   1.402       .  A
C465        C470   1.406       .  A
C465        H472   1.083       .  S
C466       C1343   1.494   1_655  S
C466       C1587   1.425   1_556  A
C467        C468   1.410       .  A
C467       C1586   1.422       .  A
C467        C474   1.522   1_655  S
C468       C1589   1.407       .  A
C468        H473   1.082       .  S
C469        C470   1.428   1_554  A
C469       C1588   1.406       .  A
C470        C471   1.521       .  S
C471        F475   1.385       .  S
C471        F476   1.377       .  S
C471        F477   1.379       .  S
C474        F478   1.383       .  S
C474        F479   1.384       .  S
C474        F480   1.385   1_455  S
C481        C482   1.407       .  A
C481        C486   1.409       .  A
C481        H488   1.082       .  S
C482        C483   1.418       .  A
C483        C484   1.411       .  A
C483        C490   1.516       .  S
C484        C485   1.407       .  A
C484        H489   1.079       .  S
C485        C486   1.418       .  A
C486        C487   1.515       .  S
C487        F491   1.385       .  S
C487        F492   1.383       .  S
C487        F493   1.380       .  S
C490        F494   1.383       .  S
C490        F495   1.380       .  S
C490        F496   1.385       .  S
C497        C498   1.398       .  A
C497        C502   1.406       .  A
C497        H504   1.083       .  S
C498        C499   1.428       .  A
C499        C500   1.410   1_455  A
C499        C506   1.520   1_455  S
C500        C501   1.398   1_655  A
C500        H505   1.084       .  S
C501        C502   1.419       .  A
C502        C503   1.509       .  S
C503        F507   1.385       .  S
C503        F508   1.383       .  S
C503        F509   1.381       .  S
C506        F510   1.384   1_655  S
C506        F511   1.382       .  S
C506        F512   1.385       .  S
C513        C514   1.408   1_655  A
C513        C518   1.410       .  A
C513        H520   1.084       .  S
C514        C515   1.412       .  A
C515        C516   1.412       .  A
C515        C522   1.516       .  S
C516        C517   1.411   1_455  A
C516        H521   1.083       .  S
C517        C518   1.415       .  A
C518        C519   1.514       .  S
C519        F523   1.385       .  S
C519        F524   1.383       .  S
C519        F525   1.382       .  S
C522        F526   1.384       .  S
C522        F527   1.383       .  S
C522        F528   1.383       .  S
C529        C530   1.403       .  A
C529        C534   1.413       .  A
C529        H536   1.083       .  S
C530        C531   1.412   1_554  A
C531        C532   1.406       .  A
C531        C538   1.520       .  S
C532        C533   1.412   1_556  A
C532        H537   1.082       .  S
C533        C534   1.427       .  A
C534        C535   1.521       .  S
C535        F539   1.385       .  S
C535        F541   1.384       .  S
C535       F1660   1.383       .  S
C538        F542   1.381       .  S
C538        F543   1.383       .  S
C538        F544   1.385       .  S
F540       C1655   1.383       .  S
C545        C550   1.404       .  A
C545       C1666   1.399       .  A
C545        H552   1.085       .  S
C546       C1431   1.480       .  S
C546        C547   1.420   1_556  A
C546       C1665   1.402       .  A
C547        C548   1.408       .  A
C547        C554   1.519       .  S
C548        C549   1.401       .  A
C548        H553   1.083       .  S
C549       C1670   1.417   1_554  A
C550       C1669   1.418       .  A
C550        C551   1.515       .  S
C551        F555   1.384       .  S
C551        F556   1.381       .  S
C551        F557   1.383       .  S
C554        F558   1.380   1_455  S
C554        F559   1.380       .  S
C554        F560   1.385       .  S
C561        C562   1.409   1_565  A
C561        C566   1.398       .  A
C561        H568   1.083       .  S
C562        C563   1.415       .  A
C563        C564   1.413       .  A
C563        C570   1.515       .  S
C564        C565   1.408   1_545  A
C564        H569   1.084       .  S
C565        C566   1.406       .  A
C566        C567   1.512       .  S
C567        F571   1.384       .  S
C567        F572   1.384       .  S
C567        F573   1.380       .  S
C570        F574   1.384       .  S
C570        F575   1.379       .  S
C570        F576   1.385       .  S
C577        C578   1.404       .  A
C577        C582   1.409       .  A
C577        H584   1.083       .  S
C578        C579   1.411       .  A
C579        C580   1.397       .  A
C579        C586   1.518       .  S
C580        C581   1.404       .  A
C580        H585   1.083       .  S
C581        C582   1.416       .  A
C582        C583   1.517       .  S
C583        F587   1.385       .  S
C583        F588   1.383   1_565  S
C583        F589   1.382       .  S
C586        F590   1.381       .  S
C586        F591   1.380       .  S
C586        F592   1.385       .  S
C593        C594   1.407       .  A
C593        C598   1.402       .  A
C593        H600   1.080       .  S
C594        C595   1.425       .  A
C595        C596   1.404       .  A
C595        C602   1.520   1_655  S
C596        C597   1.399       .  A
C596        H601   1.082       .  S
C597        C598   1.416       .  A
C598        C599   1.522       .  S
C599        F603   1.385       .  S
C599        F604   1.381       .  S
C599        F605   1.382       .  S
C602        F606   1.383       .  S
C602        F607   1.383       .  S
C602        F608   1.385   1_455  S
C609        C610   1.410       .  A
C609        C614   1.405       .  A
C609        H616   1.083       .  S
C610        C611   1.412       .  A
C611        C612   1.411       .  A
C611        C618   1.515   1_455  S
C612        C613   1.411       .  A
C612        H617   1.083       .  S
C613        C614   1.412       .  A
C614        C615   1.517       .  S
C615        F619   1.385       .  S
C615        F620   1.382       .  S
C615        F621   1.382       .  S
C618        F622   1.383       .  S
C618        F623   1.380       .  S
C618        F624   1.384       .  S
C625        C626   1.393       .  A
C625        C630   1.405       .  A
C625        H632   1.082       .  S
C626        C627   1.418   1_455  A
C627        C628   1.408       .  A
C627        C634   1.515       .  S
C628        C629   1.402       .  A
C628        H633   1.083       .  S
C629        C630   1.433   1_655  A
C630        C631   1.524       .  S
C631        F635   1.385       .  S
C631        F636   1.383       .  S
C631        F637   1.383       .  S
C634        F638   1.383       .  S
C634        F639   1.381       .  S
C634        F640   1.385       .  S
C641        C642   1.402       .  A
C641        C646   1.410       .  A
C641        H648   1.085       .  S
C642        C643   1.422       .  A
C643        C644   1.413       .  A
C643        C650   1.516       .  S
C644        C645   1.405       .  A
C644        H649   1.083       .  S
C645        C646   1.422       .  A
C646        C647   1.515       .  S
C647        F651   1.384       .  S
C647        F652   1.383       .  S
C647        F653   1.383       .  S
C650        F654   1.382       .  S
C650        F655   1.383       .  S
C650        F656   1.384       .  S
C657        C658   1.407       .  A
C657        C662   1.405       .  A
C657        H664   1.082       .  S
C658        C659   1.431       .  A
C659        C660   1.410       .  A
C659        C666   1.524       .  S
C660        C661   1.399       .  A
C660        H665   1.081       .  S
C661        C662   1.416       .  A
C662        C663   1.520       .  S
C663        F667   1.384       .  S
C663        F668   1.382       .  S
C663        F669   1.381       .  S
C666        F670   1.384   1_545  S
C666        F671   1.383   1_545  S
C666        F672   1.385       .  S
C673        C674   1.410       .  A
C673        C678   1.416   1_554  A
C673        H680   1.083   1_554  S
C674        C675   1.416       .  A
C675        C676   1.408       .  A
C675        C682   1.517       .  S
C676        C677   1.406       .  A
C676       H1801   1.084       .  S
C677       C1358   1.489   1_554  S
C677        C678   1.412   1_554  A
C678        C679   1.513       .  S
C679        F683   1.385       .  S
C679        F684   1.383       .  S
C679       F1805   1.383       .  S
H681       C1796   1.084       .  S
C682        F686   1.383       .  S
C682        F687   1.383       .  S
C682        F688   1.384       .  S
F685       C1799   1.383       .  S
C689        C690   1.396       .  A
C689        C694   1.400       .  A
C689        H696   1.083       .  S
C690        C691   1.424       .  A
C691        C692   1.422       .  A
C691        C698   1.515       .  S
C692        C693   1.406       .  A
C692        H697   1.083       .  S
C693        C694   1.427       .  A
C694        C695   1.518       .  S
C695        F699   1.385       .  S
C695        F700   1.376       .  S
C695        F701   1.381       .  S
C698        F702   1.383       .  S
C698        F703   1.380       .  S
C698        F704   1.384       .  S
C705        C706   1.409       .  A
C705        C710   1.413       .  A
C705        H712   1.083       .  S
C706        C707   1.419       .  A
C707        C708   1.410       .  A
C707        C714   1.517       .  S
C708        C709   1.407       .  A
C708        H713   1.083       .  S
C709        C710   1.419       .  A
C710        C711   1.516       .  S
C711        F715   1.385       .  S
C711        F716   1.383       .  S
C711        F717   1.381       .  S
C714        F718   1.385       .  S
C714        F719   1.383       .  S
C714        F720   1.379       .  S
C721        C722   1.403       .  A
C721        C726   1.419       .  A
C721        H728   1.083       .  S
C722        C723   1.424       .  A
C723        C724   1.401       .  A
C723        C730   1.514       .  S
C724        C725   1.398       .  A
C724        H729   1.083       .  S
C725        C726   1.425       .  A
C726        C727   1.511       .  S
C727        F731   1.385       .  S
C727        F732   1.377       .  S
C727        F733   1.383       .  S
C730        F734   1.381       .  S
C730        F735   1.379       .  S
C730        F736   1.385       .  S
C737        C738   1.408       .  A
C737        C742   1.406       .  A
C737        H744   1.082       .  S
C738        C739   1.426       .  A
C739        C740   1.405       .  A
C739        C746   1.523       .  S
C740        C741   1.400       .  A
C740        H745   1.082       .  S
C741        C742   1.413       .  A
C742        C743   1.513       .  S
C743        F747   1.385       .  S
C743        F748   1.383       .  S
C743        F749   1.382       .  S
C746        F750   1.383       .  S
C746        F751   1.383       .  S
C746        F752   1.384       .  S
C753        C754   1.409       .  A
C753        C758   1.409       .  A
C753        H760   1.083       .  S
C754        C755   1.414       .  A
C755        C756   1.404       .  A
C755        C762   1.519       .  S
C756        C757   1.408       .  A
C756        H761   1.083       .  S
C757        C758   1.415       .  A
C758        C759   1.518       .  S
C759        F763   1.384       .  S
C759        F764   1.383       .  S
C759        F765   1.383       .  S
C762        F766   1.382       .  S
C762        F767   1.382       .  S
C762        F768   1.385       .  S
C769        C770   1.410       .  A
C769        C774   1.405       .  A
C769        H776   1.084       .  S
C770        C771   1.417       .  A
C771        C772   1.412       .  A
C771        C778   1.513       .  S
C772        C773   1.406       .  A
C772        H777   1.077       .  S
C773        C774   1.412       .  A
C774        C775   1.513       .  S
C775        F779   1.381       .  S
C775        F780   1.380       .  S
C775        F781   1.382       .  S
C778        F782   1.375       .  S
C778        F783   1.384       .  S
C778        F784   1.385       .  S
C785        C786   1.410       .  A
C785        C790   1.415       .  A
C785        H792   1.083       .  S
C786       C1220   1.483   1_554  S
C786       C1907   1.410   1_554  A
C787        C788   1.411       .  A
C787       C1906   1.409       .  A
C787        C794   1.516       .  S
C788       C1909   1.410       .  A
C788        H793   1.084       .  S
C789        C790   1.411       .  A
C789       C1908   1.410   1_554  A
C790        C791   1.512       .  S
C791        F795   1.384       .  S
C791        F796   1.383       .  S
C791        F797   1.382       .  S
C794        F798   1.383       .  S
C794        F799   1.383       .  S
C794        F800   1.384       .  S
C801        C802   1.400       .  A
C801        C806   1.407       .  A
C801        H808   1.084       .  S
C802        C803   1.416       .  A
C803        C804   1.409       .  A
C803        C810   1.513       .  S
C804        C805   1.407       .  A
C804        H809   1.082       .  S
C805        C806   1.425       .  A
C806        C807   1.511       .  S
C807        F811   1.385       .  S
C807        F812   1.382       .  S
C807        F813   1.383       .  S
C810        F814   1.383       .  S
C810        F815   1.383       .  S
C810        F816   1.384       .  S
C817       C1938   1.409       .  A
C817       C1942   1.409       .  A
C817        H824   1.083       .  S
C818        C819   1.424       .  A
C818       C1937   1.408   1_554  A
C819        C820   1.411       .  A
C819        C826   1.520       .  S
C820        C821   1.405       .  A
C820        H825   1.083       .  S
C821        C822   1.419       .  A
C822       C1937   1.410   1_554  A
C822       C1943   1.521   1_554  S
C823       C1942   1.521       .  S
C823        F827   1.385       .  S
C823        F828   1.383       .  S
C823        F829   1.384       .  S
C826        F830   1.385       .  S
C826        F831   1.383       .  S
C826        F832   1.384       .  S
C833       C1954   1.405       .  A
C833       C1958   1.422       .  A
C833        H840   1.083       .  S
C834       C1446   1.502   1_554  S
C834        C835   1.425       .  A
C834       C1953   1.402   1_554  A
C835        C836   1.410       .  A
C835        C842   1.509       .  S
C836        C837   1.397       .  A
C836        H841   1.084       .  S
C837        C838   1.427   1_554  A
C838       C1953   1.418       .  A
C838       C1959   1.512       .  S
C839       C1958   1.511       .  S
C839        F843   1.384       .  S
C839        F844   1.383       .  S
C839       F1965   1.379       .  S
C842        F846   1.379       .  S
C842        F847   1.380       .  S
C842        F848   1.385       .  S
F845       C1959   1.379       .  S
C849        C850   1.408       .  A
C849        C854   1.408       .  A
C849        H856   1.083       .  S
C850        C851   1.425   1_554  A
C851       C1972   1.408       .  A
C851       C1978   1.521       .  S
C852       C1971   1.407       .  A
C852       C1973   1.403       .  A
C852        H857   1.083       .  S
C853       C1217   1.481       .  S
C853        C854   1.417   1_556  A
C853       C1972   1.401       .  A
C854        C855   1.521       .  S
C855        F859   1.385       .  S
C855        F860   1.384       .  S
C855       F1981   1.382       .  S
C858       C1971   1.521       .  S
C858        F863   1.383       .  S
C858        F864   1.384       .  S
C858       F1982   1.384       .  S
F861       C1975   1.383       .  S
F862       C1978   1.384       .  S
C865        C866   1.406       .  A
C865        C870   1.411       .  A
C865        H872   1.080       .  S
C866        C867   1.413       .  A
C867        C868   1.416       .  A
C867        C874   1.515       .  S
C868        C869   1.410       .  A
C868        H873   1.084       .  S
C869        C870   1.414       .  A
C870        C871   1.517       .  S
C871        F875   1.384       .  S
C871        F876   1.382       .  S
C871        F877   1.384       .  S
C874        F878   1.383       .  S
C874        F879   1.383       .  S
C874        F880   1.385       .  S
C881        C882   1.398       .  A
C881        C886   1.408       .  A
C881        H888   1.082       .  S
C882        C883   1.407       .  A
C883        C884   1.408       .  A
C883        C890   1.515       .  S
C884        C885   1.414       .  A
C884        H889   1.080       .  S
C885        C886   1.428       .  A
C886        C887   1.521       .  S
C887        F891   1.383       .  S
C887        F892   1.382       .  S
C887        F893   1.380       .  S
C890        F894   1.383       .  S
C890        F895   1.381       .  S
C890        F896   1.385       .  S
C897        C898   1.407       .  A
C897        C902   1.410       .  A
C897        H904   1.083       .  S
C898        C899   1.411       .  A
C899        C900   1.402       .  A
C899        C906   1.516       .  S
C900        C901   1.407       .  A
C900        H905   1.084       .  S
C901        C902   1.414       .  A
C902        C903   1.515       .  S
C903        F907   1.385       .  S
C903        F908   1.381       .  S
C903        F909   1.383       .  S
C906        F910   1.385       .  S
C906        F911   1.380       .  S
C906        F912   1.382       .  S
C913        C914   1.399       .  A
C913        C918   1.409       .  A
C913        H920   1.083       .  S
C914        C915   1.424       .  A
C915        C916   1.408       .  A
C915        C922   1.519       .  S
C916        C917   1.399       .  A
C916        H921   1.083       .  S
C917        C918   1.424       .  A
C918        C919   1.519       .  S
C919        F923   1.385       .  S
C919        F924   1.382       .  S
C919        F925   1.383       .  S
C922        F926   1.382       .  S
C922        F927   1.380       .  S
C922        F928   1.385       .  S
C929        C930   1.405       .  A
C929        C934   1.413       .  A
C929        H936   1.084       .  S
C930        C931   1.418       .  A
C931        C932   1.404       .  A
C931        C938   1.517       .  S
C932        C933   1.404       .  A
C932        H937   1.085       .  S
C933        C934   1.422       .  A
C934        C935   1.518       .  S
C935        F939   1.385       .  S
C935        F940   1.381       .  S
C935        F941   1.384       .  S
C938        F942   1.383       .  S
C938        F943   1.384       .  S
C938        F944   1.384       .  S
C945        C946   1.406       .  A
C945        C950   1.407       .  A
C945        H952   1.083       .  S
C946        C947   1.412       .  A
C947        C948   1.407       .  A
C947        C954   1.516       .  S
C948        C949   1.406       .  A
C948        H953   1.084       .  S
C949        C950   1.411       .  A
C950        C951   1.516       .  S
C951        F955   1.385       .  S
C951        F956   1.383       .  S
C951        F957   1.383       .  S
C954        F958   1.383       .  S
C954        F959   1.382       .  S
C954        F960   1.385       .  S
C961        C962   1.398       .  A
C961        C966   1.407       .  A
C961        H968   1.084       .  S
C962        C963   1.412       .  A
C963        C964   1.408       .  A
C963        C970   1.516       .  S
C964        C965   1.410       .  A
C964        H969   1.082       .  S
C965        C966   1.426       .  A
C966        C967   1.521       .  S
C967        F971   1.385       .  S
C967        F972   1.380       .  S
C967        F973   1.382       .  S
C970        F974   1.381       .  S
C970        F975   1.381       .  S
C970        F976   1.385       .  S
C977        C978   1.399       .  A
C977        C982   1.407       .  A
C977        H984   1.083       .  S
C978        C979   1.412       .  A
C979        C980   1.405       .  A
C979        C986   1.520       .  S
C980        C981   1.411       .  A
C980        H985   1.082       .  S
C981        C982   1.429       .  A
C982        C983   1.523       .  S
C983        F987   1.385       .  S
C983        F988   1.384       .  S
C983        F989   1.382       .  S
C986        F990   1.382       .  S
C986        F991   1.383       .  S
C986        F992   1.385       .  S
C993        C994   1.409       .  A
C993        C998   1.418       .  A
C993       H1000   1.082       .  S
C994        C995   1.406       .  A
C995        C996   1.396       .  A
C995       C1002   1.518       .  S
C996        C997   1.408       .  A
C996       H1001   1.068       .  S
C997        C998   1.420       .  A
C998        C999   1.516       .  S
C999       F1003   1.385       .  S
C999       F1004   1.383       .  S
C999       F1005   1.383       .  S
C1002      F1006   1.382       .  S
C1002      F1007   1.384       .  S
C1002      F1008   1.383       .  S
C1009      C1010   1.394       .  A
C1009      C1014   1.403       .  A
C1009      H1016   1.084       .  S
C1010      C1011   1.416       .  A
C1011      C1012   1.403       .  A
C1011      C1018   1.516       .  S
C1012      C1013   1.400       .  A
C1012      H1017   1.083       .  S
C1013      C1014   1.429       .  A
C1014      C1015   1.521       .  S
C1015      F1019   1.385       .  S
C1015      F1020   1.382       .  S
C1015      F1021   1.383       .  S
C1018      F1022   1.382       .  S
C1018      F1023   1.381       .  S
C1018      F1024   1.385       .  S
C1025      C1030   1.410       .  A
C1025      C2146   1.399       .  A
C1025      H1032   1.084       .  S
C1026      C1132   1.486       .  S
C1026      C1027   1.427       .  A
C1026      C2145   1.398   1_554  A
C1027      C1028   1.403       .  A
C1027      C1034   1.510       .  S
C1028      C1029   1.390       .  A
C1028      H1033   1.084       .  S
C1029      C2150   1.419       .  A
C1030      C2149   1.421       .  A
C1030      C1031   1.509       .  S
C1031      F1035   1.385       .  S
C1031      F1036   1.380       .  S
C1031      F1037   1.384       .  S
C1034      F1038   1.381       .  S
C1034      F1039   1.376       .  S
C1034      F1040   1.385       .  S
C1041      C1042   1.403       .  A
C1041      C1046   1.409       .  A
C1041      H1048   1.083       .  S
C1042      C1129   1.480       .  S
C1042      C1043   1.417   1_556  A
C1043      C1044   1.403       .  A
C1043      C2170   1.522       .  S
C1044      C1045   1.407       .  A
C1044      H1049   1.083       .  S
C1045      C1046   1.422   1_554  A
C1046      C1047   1.515       .  S
C1047      F1051   1.385       .  S
C1047      F1052   1.383       .  S
C1047      F2173   1.378       .  S
C1050      C2163   1.520       .  S
C1050      F1055   1.379       .  S
C1050      F1056   1.385       .  S
C1050      F2174   1.379       .  S
F1053      C2167   1.383       .  S
F1054      C2170   1.384       .  S
C1057      C1058   1.409       .  A
C1057      C1062   1.406       .  A
C1057      H1064   1.083       .  S
C1058      C1059   1.413       .  A
C1059      C1060   1.396       .  A
C1059      C1066   1.522       .  S
C1060      C1061   1.406       .  A
C1060      H1065   1.083       .  S
C1061      C1062   1.409       .  A
C1062      C1063   1.516       .  S
C1063      F1067   1.384       .  S
C1063      F1068   1.383       .  S
C1063      F1069   1.384       .  S
C1066      F1070   1.382       .  S
C1066      F1071   1.382       .  S
C1066      F1072   1.385       .  S
C1073      C1074   1.405       .  A
C1073      C1078   1.407       .  A
C1073      H1080   1.084       .  S
C1074      C1075   1.408       .  A
C1075      C1076   1.406       .  A
C1075      C1082   1.516       .  S
C1076      C1077   1.411       .  A
C1076      H1081   1.083       .  S
C1077      C1078   1.417       .  A
C1078      C1079   1.518       .  S
C1079      F1083   1.383       .  S
C1079      F1084   1.381       .  S
C1079      F1085   1.383       .  S
C1082      F1086   1.382       .  S
C1082      F1087   1.383       .  S
C1082      F1088   1.384       .  S
C1089      C1090   1.405       .  A
C1089      C1094   1.411       .  A
C1089      H1096   1.082       .  S
C1090      C1091   1.423       .  A
C1091      C1092   1.414       .  A
C1091      C1098   1.514       .  S
C1092      C1093   1.406       .  A
C1092      H1097   1.083       .  S
C1093      C1094   1.423       .  A
C1094      C1095   1.513       .  S
C1095      F1099   1.385       .  S
C1095      F1100   1.376       .  S
C1095      F1101   1.383       .  S
C1098      F1102   1.376       .  S
C1098      F1103   1.383       .  S
C1098      F1104   1.385       .  S
C1105      C1106   1.408       .  A
C1105      C1110   1.401       .  A
C1105      H1112   1.081       .  S
C1106      C1107   1.428   1_554  A
C1107      C1108   1.410   1_556  A
C1107      C1114   1.522       .  S
C1108      C1109   1.400       .  A
C1108      H1113   1.083   1_554  S
C1109      C1110   1.410       .  A
C1110      C1111   1.511       .  S
C1111      F1115   1.385       .  S
C1111      F1116   1.382       .  S
C1111      F1117   1.382       .  S
C1114      F1119   1.383       .  S
C1114      F1120   1.385       .  S
C1114      F2238   1.383       .  S
F1118      C2234   1.383       .  S
O1121     Cr1139   2.023       .  S
O1121      C1129   1.271       .  A
O1122      C1123   1.254       .  A
C1123      O1124   1.266       .  A
C1123      C2178   1.474       .  S
O1124     Cr1140   2.007       .  S
O1125     Cr1140   1.966       .  S
O1125      C1126   1.251       .  A
C1126      C2226   1.482       .  S
O1127     Cr1141   2.007       .  S
O1128     Cr1141   1.963       .  S
O1128      C1129   1.260       .  A
O1130     Cr1139   1.996       .  S
O1130      C1138   1.263       .  A
O1131     Cr1139   2.033   1_554  S
O1131      C1132   1.270       .  A
C1132      O1133   1.260   1_554  A
O1134      C1135   1.273       .  A
C1135      O1136   1.263       .  A
C1135      C2210   1.490       .  S
O1136     Cr1141   1.962       .  S
O1137     Cr1141   1.984       .  S
O1137      C1138   1.261       .  A
C1138      C2194   1.472       .  S
Cr1139     O1142   1.781       .  S
Cr1141     O1142   1.765       .  S
O1143     Cr1161   2.019       .  S
O1143      C1151   1.267       .  A
O1144     Cr1161   1.948       .  S
O1144      C1145   1.256       .  A
C1145      O1146   1.269       .  A
C1145      C2114   1.464       .  S
O1146     Cr1162   2.020       .  S
O1147     Cr1162   1.970       .  S
O1147      C1148   1.256       .  A
C1148      O1149   1.262       .  A
C1148      C2098   1.480       .  S
O1149     Cr1163   2.006       .  S
O1150     Cr1163   1.978       .  S
O1150      C1151   1.263       .  A
C1151      C2085   1.496       .  S
O1152     Cr1161   1.981       .  S
O1152      C1160   1.262       .  A
O1153     Cr1161   2.025       .  S
O1153      C1154   1.265       .  A
C1154      O1155   1.253       .  A
C1154      C2066   1.479       .  S
O1155     Cr1162   1.963       .  S
O1156     Cr1162   2.011       .  S
O1156      C1157   1.267       .  A
C1157      O1158   1.264       .  A
C1157      C2213   1.492       .  S
O1158     Cr1163   1.984       .  S
O1159     Cr1163   2.000       .  S
O1159      C1160   1.264       .  A
C1160      C2130   1.464       .  S
Cr1161     O1164   1.777       .  S
Cr1162     O1164   1.767       .  S
Cr1163     O1164   1.766       .  S
O1165     Cr1183   1.953       .  S
O1165      C1173   1.258       .  A
O1166     Cr1183   2.025       .  S
O1166      C1167   1.270       .  A
C1167      O1168   1.262       .  A
C1167      C2005   1.497       .  S
O1168     Cr1184   1.973       .  S
O1169     Cr1184   1.995       .  S
O1169      C1170   1.258       .  A
C1170      O1171   1.256       .  A
C1170      C2082   1.470       .  S
O1171     Cr1185   1.977       .  S
O1172     Cr1185   2.043       .  S
O1172      C1173   1.275       .  A
C1173      C2018   1.486       .  S
O1174     Cr1183   2.031       .  S
O1174      C1182   1.267       .  A
O1175     Cr1183   1.999       .  S
O1175      C1176   1.266       .  A
C1176      O1177   1.260       .  A
C1176      C2034   1.479       .  S
O1177     Cr1184   1.994       .  S
O1178     Cr1184   1.972       .  S
O1178      C1179   1.261       .  A
C1179      O1180   1.277       .  A
C1179      C2053   1.494       .  S
O1180     Cr1185   2.042       .  S
O1181     Cr1185   1.972       .  S
O1181      C1182   1.255       .  A
C1182      C1989   1.491       .  S
Cr1183     O1186   1.775       .  S
Cr1184     O1186   1.768       .  S
Cr1185     O1186   1.769       .  S
O1187      C1195   1.246       .  A
O1188     Cr1205   2.023       .  S
O1188      C1189   1.270       .  A
C1189      O1190   1.263       .  A
C1189      C2229   1.487       .  S
O1190     Cr1206   1.967       .  S
O1191     Cr1206   2.003       .  S
O1191      C1192   1.261       .  A
C1192      O1193   1.254       .  A
C1192      C1970   1.486       .  S
O1193     Cr1207   1.977       .  S
O1194      C1195   1.273       .  A
C1195      C2133   1.488       .  S
O1196     Cr1205   2.042       .  S
O1196      C1204   1.269       .  A
O1197     Cr1205   1.988       .  S
O1197      C1198   1.262       .  A
C1198      O1199   1.263       .  A
C1198      C2117   1.482       .  S
O1199     Cr1206   1.980       .  S
O1200     Cr1206   1.962       .  S
O1200      C1201   1.261       .  A
C1201      O1202   1.278       .  A
C1201      C2050   1.491       .  S
O1202     Cr1207   2.052       .  S
O1203     Cr1207   1.958       .  S
O1203      C1204   1.259       .  A
C1204      C1957   1.493       .  S
Cr1205     O1208   1.775       .  S
Cr1206     O1208   1.761       .  S
Cr1207     O1208   1.761       .  S
O1209     Cr1227   2.021       .  S
O1209      C1217   1.271       .  A
O1210      C1211   1.254       .  A
C1211      O1212   1.272       .  A
C1211      C2037   1.481       .  S
O1212     Cr1228   2.030       .  S
O1213     Cr1228   1.985       .  S
O1213      C1214   1.258       .  A
C1214      C1938   1.499       .  S
O1215     Cr1229   2.012       .  S
O1216     Cr1229   1.975       .  S
O1216      C1217   1.260       .  A
O1218     Cr1227   1.994       .  S
O1218      C1226   1.263       .  A
O1219     Cr1227   2.028       .  S
O1219      C1220   1.267       .  A
C1220      O1221   1.259       .  A
O1222      C1223   1.277       .  A
C1223      O1224   1.263       .  A
C1223      C1922   1.496       .  S
O1224     Cr1229   1.980       .  S
O1225     Cr1229   2.004       .  S
O1225      C1226   1.265       .  A
C1226      C2021   1.484       .  S
Cr1227     O1230   1.777       .  S
Cr1229     O1230   1.767       .  S
O1231     Cr1249   2.025       .  S
O1231      C1239   1.270       .  A
O1232     Cr1249   1.968       .  S
O1232      C1233   1.257       .  A
C1233      O1234   1.270       .  A
C1233      C1874   1.494       .  S
O1234     Cr1250   2.027       .  S
O1235     Cr1250   1.969       .  S
O1235      C1236   1.253       .  A
C1236      O1237   1.262       .  A
C1236      C2002   1.472       .  S
O1237     Cr1251   2.017       .  S
O1238     Cr1251   1.968       .  S
O1238      C1239   1.261       .  A
C1239      C1861   1.480       .  S
O1240     Cr1249   1.992       .  S
O1240      C1248   1.262       .  A
O1241     Cr1249   2.034       .  S
O1241      C1242   1.270       .  A
C1242      O1243   1.260       .  A
C1242      C1842   1.488       .  S
O1243     Cr1250   1.974       .  S
O1244     Cr1250   2.056       .  S
O1244      C1245   1.279       .  A
C1245      O1246   1.261       .  A
C1245      C1925   1.505       .  S
O1246     Cr1251   1.969       .  S
O1247     Cr1251   2.010       .  S
O1247      C1248   1.266       .  A
C1248      C1893   1.480       .  S
Cr1249     O1252   1.783       .  S
Cr1250     O1252   1.770       .  S
Cr1251     O1252   1.770       .  S
O1253     Cr1271   1.950       .  S
O1253      C1261   1.257       .  A
O1254     Cr1271   2.027       .  S
O1254      C1255   1.270       .  A
C1255      O1256   1.264       .  A
C1255      C2101   1.500       .  S
O1256     Cr1272   1.973       .  S
O1257     Cr1272   1.989       .  S
O1257      C1258   1.256       .  A
C1258      O1259   1.257       .  A
C1258      C1858   1.488       .  S
O1259     Cr1273   1.981       .  S
O1260     Cr1273   2.033       .  S
O1260      C1261   1.273       .  A
C1261      C2197   1.487       .  S
O1262     Cr1271   2.035       .  S
O1262      C1270   1.267       .  A
O1263     Cr1271   1.993       .  S
O1263      C1264   1.263       .  A
C1264      O1265   1.259       .  A
C1264      C2181   1.472       .  S
O1265     Cr1272   1.977       .  S
O1266     Cr1272   1.965       .  S
O1266      C1267   1.261       .  A
C1267      O1268   1.278       .  A
C1267      C1826   1.499       .  S
O1268     Cr1273   2.057       .  S
O1269     Cr1273   1.970       .  S
O1269      C1270   1.260       .  A
C1270      C1810   1.493       .  S
Cr1271     O1274   1.774       .  S
Cr1272     O1274   1.763       .  S
Cr1273     O1274   1.767       .  S
O1275      C1283   1.259       .  A
O1276     Cr1293   2.039       .  S
O1276      C1277   1.276       .  A
C1277      O1278   1.261       .  A
C1277      C1941   1.488       .  S
O1278     Cr1294   1.970       .  S
O1279     Cr1294   1.988       .  S
O1279      C1280   1.260       .  A
C1280      O1281   1.258       .  A
C1280      C2165   1.503       .  S
O1281     Cr1295   1.997       .  S
O1282      C1283   1.276       .  A
C1283      C1890   1.497       .  S
O1284     Cr1293   2.037       .  S
O1284      C1292   1.269       .  A
O1285     Cr1293   2.011       .  S
O1285      C1286   1.267       .  A
C1286      O1287   1.259       .  A
C1286      C1877   1.487       .  S
O1287     Cr1294   1.988       .  S
O1288     Cr1294   1.969       .  S
O1288      C1289   1.263       .  A
C1289      O1290   1.279       .  A
C1289      C1829   1.502       .  S
O1290     Cr1295   2.055       .  S
O1291     Cr1295   1.970       .  S
O1291      C1292   1.257       .  A
C1292      C1794   1.492       .  S
Cr1293     O1296   1.773       .  S
Cr1294     O1296   1.764       .  S
Cr1295     O1296   1.772       .  S
O1297     Cr1315   2.010   1_655  S
O1297      C1305   1.269       .  A
O1298     Cr1315   1.950       .  S
O1298      C1299   1.257       .  A
C1299      O1300   1.274       .  A
C1299      C1733   1.477       .  S
O1300     Cr1316   2.033       .  S
O1301     Cr1316   1.967       .  S
O1301      C1302   1.253       .  A
C1302      O1303   1.261       .  A
C1302      C1781   1.477       .  S
O1303     Cr1317   2.003       .  S
O1304     Cr1317   1.975       .  S
O1304      C1305   1.260   1_455  A
C1305      C1714   1.488       .  S
O1306     Cr1315   1.994       .  S
O1306      C1314   1.265       .  A
O1307     Cr1315   2.027       .  S
O1307      C1308   1.262       .  A
C1308      O1309   1.257       .  A
C1308      C1845   1.489       .  S
O1309     Cr1316   1.959       .  S
O1310     Cr1316   2.041       .  S
O1310      C1311   1.275       .  A
C1311      O1312   1.260       .  A
C1311      C1765   1.494       .  S
O1312     Cr1317   1.969       .  S
O1313     Cr1317   1.997       .  S
O1313      C1314   1.263       .  A
C1314      C1746   1.475       .  S
Cr1315     O1318   1.778       .  S
Cr1316     O1318   1.767       .  S
Cr1317     O1318   1.767       .  S
O1319     Cr1337   2.004   1_565  S
O1319      C1327   1.266       .  A
O1320      C1321   1.257       .  A
C1321      O1322   1.275       .  A
C1321      C1682   1.500       .  S
O1323     Cr1338   1.986       .  S
O1323      C1324   1.258       .  A
C1324      O1325   1.260       .  A
C1324      C1669   1.473       .  S
O1325     Cr1339   1.984       .  S
O1326     Cr1339   1.994   1_565  S
O1326      C1327   1.260       .  A
C1327      C1650   1.482       .  S
O1328     Cr1337   1.996       .  S
O1328      C1336   1.259       .  A
O1329     Cr1337   2.009       .  S
O1329      C1330   1.270       .  A
C1330      O1331   1.260       .  A
C1330      C1909   1.479       .  S
O1331     Cr1338   1.980       .  S
O1332     Cr1338   2.017       .  S
O1332      C1333   1.271       .  A
C1333      O1334   1.261       .  A
C1333      C1762   1.482       .  S
O1334     Cr1339   1.981       .  S
O1335     Cr1339   1.974       .  S
O1335      C1336   1.258       .  A
C1336      C1701   1.468   1_545  S
Cr1337     O1340   1.785       .  S
Cr1338     O1340   1.781       .  S
Cr1339     O1340   1.784       .  S
O1341      C1349   1.251       .  A
O1342     Cr1359   2.031       .  S
O1342      C1343   1.276       .  A
C1343      O1344   1.258       .  A
O1344     Cr1360   1.963       .  S
O1345     Cr1360   2.005       .  S
C1346      O1347   1.256       .  A
C1346      C1653   1.503       .  S
O1347     Cr1361   1.989       .  S
O1348     Cr1361   2.043       .  S
O1348      C1349   1.276       .  A
C1349      C1618   1.490       .  S
O1350     Cr1359   2.041       .  S
O1350      C1358   1.271       .  A
O1351     Cr1359   2.005       .  S
O1351      C1352   1.266       .  A
C1352      O1353   1.263       .  A
C1352      C1634   1.488       .  S
O1353     Cr1360   2.001       .  S
O1354     Cr1360   1.959       .  S
O1354      C1355   1.262       .  A
C1355      O1356   1.277       .  A
C1355      C1602   1.495       .  S
O1357      C1358   1.258       .  A
Cr1359     O1362   1.775       .  S
Cr1360     O1362   1.762       .  S
O1363     Cr1381   1.948       .  S
O1363      C1371   1.251       .  A
O1364     Cr1381   2.021   1_545  S
O1364      C1365   1.276       .  A
C1365      O1366   1.262   1_545  A
C1365      C1778   1.497       .  S
O1366     Cr1382   1.972       .  S
O1367     Cr1382   2.004       .  S
O1367      C1368   1.257       .  A
C1368      O1369   1.246       .  A
C1368      C1570   1.472       .  S
O1369     Cr1383   1.964       .  S
O1370     Cr1383   2.018       .  S
O1370      C1371   1.267       .  A
C1371      C1698   1.475       .  S
O1372     Cr1381   2.050       .  S
O1372      C1380   1.274       .  A
O1373     Cr1381   2.002       .  S
O1373      C1374   1.266       .  A
C1374      O1375   1.258       .  A
C1374      C1685   1.483   1_565  S
O1375     Cr1382   1.991       .  S
O1376     Cr1382   1.978       .  S
O1376      C1377   1.267       .  A
C1377      O1378   1.279       .  A
C1377      C1605   1.503       .  S
O1378     Cr1383   2.048       .  S
O1379     Cr1383   1.961       .  S
O1379      C1380   1.255       .  A
C1380      C1813   1.495       .  S
Cr1381     O1384   1.780       .  S
Cr1382     O1384   1.774       .  S
Cr1383     O1384   1.767       .  S
O1385     Cr1403   2.009   1_455  S
O1385      C1393   1.270       .  A
O1386     Cr1403   1.954       .  S
O1386      C1387   1.256       .  A
C1387      O1388   1.279       .  A
C1387      C1637   1.500       .  S
O1388     Cr1404   2.059       .  S
O1389     Cr1404   1.980       .  S
O1389      C1390   1.255       .  A
C1390      O1391   1.263       .  A
C1390      C1554   1.489       .  S
O1391     Cr1405   2.001       .  S
O1392     Cr1405   1.968       .  S
O1392      C1393   1.258   1_655  A
C1393      C1573   1.484       .  S
O1394     Cr1403   1.995       .  S
O1394      C1402   1.264       .  A
O1395     Cr1403   2.020       .  S
O1395      C1396   1.265       .  A
C1396      O1397   1.256       .  A
C1396      C2069   1.477       .  S
O1397     Cr1404   1.972       .  S
O1398     Cr1404   2.067       .  S
O1398      C1399   1.281       .  A
C1399      O1400   1.263       .  A
C1399      C1541   1.504       .  S
O1400     Cr1405   1.971       .  S
O1401     Cr1405   2.010       .  S
O1401      C1402   1.264       .  A
C1402      C1621   1.483   1_655  S
Cr1403     O1406   1.777       .  S
Cr1404     O1406   1.770       .  S
Cr1405     O1406   1.766       .  S
O1407     Cr1425   1.982       .  S
O1407      C1415   1.258   1_565  A
O1408      C1409   1.269       .  A
C1409      O1410   1.271       .  A
C1409      C1509   1.505       .  S
O1411     Cr1426   1.986       .  S
O1411      C1412   1.251       .  A
C1412      O1413   1.257       .  A
C1412      C1589   1.494       .  S
O1413     Cr1427   1.993       .  S
O1414     Cr1427   1.970       .  S
O1414      C1415   1.257   1_565  A
C1415      C1493   1.473       .  S
O1416     Cr1425   2.004       .  S
O1416      C1424   1.266       .  A
O1417     Cr1425   2.010       .  S
O1417      C1418   1.263       .  A
C1418      O1419   1.252       .  A
C1418      C2149   1.480       .  S
O1419     Cr1426   1.977       .  S
O1420     Cr1426   2.024       .  S
O1420      C1421   1.277       .  A
C1421      O1422   1.267       .  A
C1421      C1538   1.491       .  S
O1422     Cr1427   1.998       .  S
O1423     Cr1427   1.979       .  S
O1423      C1424   1.261       .  A
C1424      C1525   1.484       .  S
Cr1425     O1428   1.790       .  S
Cr1426     O1428   1.782       .  S
Cr1427     O1428   1.785       .  S
O1429      C1437   1.249       .  A
C1431      O1432   1.261   1_455  A
O1432     Cr1448   1.971       .  S
O1433     Cr1448   1.990       .  S
C1434      O1435   1.251       .  A
C1434      C1490   1.470       .  S
O1435     Cr1449   1.973       .  S
O1436     Cr1449   2.021       .  S
O1436      C1437   1.270       .  A
C1437      C1749   1.484       .  S
O1438     Cr1447   2.056       .  S
O1438      C1446   1.275       .  A
O1439     Cr1447   1.994       .  S
O1439      C1440   1.262   1_655  A
C1440      O1441   1.260   1_455  A
C1440      C1730   1.481       .  S
O1441     Cr1448   1.989       .  S
O1442     Cr1448   1.965       .  S
O1442      C1443   1.263       .  A
C1443      O1444   1.282       .  A
C1443      C1474   1.495       .  S
O1445     Cr1449   1.965       .  S
Cr1447     O1450   1.774       .  S
Cr1448     O1450   1.766       .  S
O1451     Cr1469   1.953       .  S
O1451      C1459   1.253       .  A
O1452     Cr1469   2.025   1_565  S
O1452      C1453   1.273       .  A
C1453      O1454   1.261   1_565  A
C1453      C1557   1.486       .  S
O1454     Cr1470   1.971       .  S
O1455     Cr1470   1.999       .  S
O1455      C1456   1.259       .  A
C1456      O1457   1.253       .  A
C1456      C1717   1.475       .  S
O1457     Cr1471   1.971       .  S
O1458     Cr1471   2.039       .  S
O1458      C1459   1.274       .  A
C1459      C1522   1.480       .  S
O1460     Cr1469   2.043       .  S
O1460      C1468   1.271       .  A
O1461     Cr1469   2.004       .  S
O1461      C1462   1.266       .  A
C1462      O1463   1.261       .  A
C1462      C1506   1.482   1_545  S
O1463     Cr1470   1.983       .  S
O1464     Cr1470   1.967       .  S
O1464      C1465   1.262       .  A
C1465      O1466   1.277       .  A
C1465      C1477   1.490       .  S
O1466     Cr1471   2.044       .  S
O1467     Cr1471   1.965       .  S
O1467      C1468   1.254       .  A
C1468      C1986   1.487       .  S
Cr1469     O1472   1.777       .  S
Cr1470     O1472   1.765       .  S
Cr1471     O1472   1.769       .  S
C1473      C1474   1.405       .  A
C1473      C1478   1.408       .  A
C1473      H1480   1.084       .  S
C1474      C1475   1.424       .  A
C1475      C1476   1.410       .  A
C1475      C1482   1.513       .  S
C1476      C1477   1.402       .  A
C1476      H1481   1.083       .  S
C1477      C1478   1.417       .  A
C1478      C1479   1.511       .  S
C1479      F1483   1.384       .  S
C1479      F1484   1.383       .  S
C1479      F1485   1.383       .  S
C1482      F1486   1.382       .  S
C1482      F1487   1.383       .  S
C1482      F1488   1.385       .  S
C1489      C1490   1.403       .  A
C1489      C1494   1.406       .  A
C1490      C1491   1.413       .  A
C1491      C1492   1.403       .  A
C1491      C1498   1.519       .  S
C1492      C1493   1.404       .  A
C1492      H1497   1.084       .  S
C1493      C1494   1.417       .  A
C1494      C1495   1.520       .  S
C1495      F1500   1.382       .  S
C1498      F1502   1.382       .  S
C1498      F1503   1.382       .  S
C1498      F1504   1.385       .  S
C1505      C1506   1.404       .  A
C1505      C1510   1.405       .  A
C1505      H1512   1.084       .  S
C1506      C1507   1.407       .  A
C1507      C1508   1.411       .  A
C1507      C1514   1.514   1_565  S
C1508      C1509   1.418       .  A
C1508      H1513   1.081       .  S
C1509      C1510   1.422       .  A
C1510      C1511   1.515       .  S
C1511      F1515   1.385       .  S
C1511      F1516   1.383       .  S
C1511      F1517   1.383       .  S
C1514      F1518   1.383       .  S
C1514      F1519   1.378       .  S
C1514      F1520   1.384       .  S
C1521      C1522   1.400       .  A
C1521      C1526   1.410       .  A
C1521      H1528   1.084       .  S
C1522      C1523   1.420   1_545  A
C1523      C1524   1.410       .  A
C1523      C1530   1.518       .  S
C1524      C1525   1.401       .  A
C1524      H1529   1.083       .  S
C1525      C1526   1.422   1_565  A
C1526      C1527   1.520       .  S
C1527      F1531   1.385       .  S
C1527      F1532   1.380       .  S
C1527      F1533   1.382   1_545  S
C1530      F1534   1.380   1_565  S
C1530      F1535   1.382       .  S
C1530      F1536   1.384       .  S
C1537      C1538   1.404       .  A
C1537      C1542   1.417       .  A
C1537      H1544   1.083       .  S
C1538      C1539   1.415       .  A
C1539      C1540   1.413       .  A
C1539      C1546   1.512       .  S
C1540      C1541   1.408       .  A
C1540      H1545   1.084       .  S
C1541      C1542   1.424       .  A
C1542      C1543   1.514       .  S
C1543      F1547   1.385       .  S
C1543      F1548   1.379       .  S
C1543      F1549   1.381       .  S
C1546      F1550   1.382       .  S
C1546      F1551   1.383       .  S
C1546      F1552   1.384       .  S
C1553      C1554   1.405       .  A
C1553      C1558   1.406       .  A
C1553      H1560   1.083       .  S
C1554      C1555   1.422       .  A
C1555      C1556   1.408       .  A
C1555      C1562   1.520       .  S
C1556      C1557   1.404       .  A
C1556      H1561   1.083       .  S
C1557      C1558   1.420       .  A
C1558      C1559   1.521       .  S
C1559      F1563   1.385       .  S
C1559      F1564   1.382   1_565  S
C1559      F1565   1.384       .  S
C1562      F1566   1.378       .  S
C1562      F1567   1.382       .  S
C1562      F1568   1.385       .  S
C1569      C1570   1.403       .  A
C1569      C1574   1.407       .  A
C1569      H1576   1.083       .  S
C1570      C1571   1.419       .  A
C1571      C1572   1.398       .  A
C1571      C1578   1.524       .  S
C1572      C1573   1.402       .  A
C1572      H1577   1.077       .  S
C1573      C1574   1.422       .  A
C1574      C1575   1.520       .  S
C1575      F1579   1.385       .  S
C1575      F1580   1.384   1_455  S
C1575      F1581   1.382   1_455  S
C1578      F1582   1.379       .  S
C1578      F1583   1.378       .  S
C1578      F1584   1.385       .  S
C1585      C1586   1.401       .  A
C1585      C1590   1.403       .  A
C1585      H1592   1.082       .  S
C1587      C1588   1.410       .  A
C1587      C1594   1.522   1_655  S
C1588      H1593   1.082       .  S
C1589      C1590   1.427       .  A
C1590      C1591   1.523       .  S
C1591      F1595   1.385       .  S
C1591      F1596   1.376       .  S
C1591      F1597   1.380       .  S
C1594      F1598   1.384   1_554  S
C1594      F1599   1.384       .  S
C1594      F1600   1.385       .  S
C1601      C1602   1.402       .  A
C1601      C1606   1.407       .  A
C1601      H1608   1.083       .  S
C1602      C1603   1.418       .  A
C1603      C1604   1.415       .  A
C1603      C1610   1.515       .  S
C1604      C1605   1.410       .  A
C1604      H1609   1.083       .  S
C1605      C1606   1.423       .  A
C1606      C1607   1.513       .  S
C1607      F1611   1.385       .  S
C1607      F1612   1.383       .  S
C1607      F1613   1.379       .  S
C1610      F1614   1.384       .  S
C1610      F1615   1.377       .  S
C1610      F1616   1.385       .  S
C1617      C1618   1.399       .  A
C1617      C1622   1.407       .  A
C1617      H1624   1.083       .  S
C1618      C1619   1.430       .  A
C1619      C1620   1.409   1_455  A
C1619      C1626   1.521   1_455  S
C1620      C1621   1.396   1_655  A
C1620      H1625   1.084       .  S
C1621      C1622   1.420       .  A
C1622      C1623   1.512       .  S
C1623      F1627   1.385       .  S
C1623      F1628   1.383       .  S
C1623      F1629   1.381       .  S
C1626      F1630   1.384   1_655  S
C1626      F1631   1.383       .  S
C1626      F1632   1.385       .  S
C1633      C1634   1.407   1_655  A
C1633      C1638   1.411       .  A
C1633      H1640   1.084       .  S
C1634      C1635   1.411       .  A
C1635      C1636   1.414       .  A
C1635      C1642   1.516       .  S
C1636      C1637   1.414   1_455  A
C1636      H1641   1.083       .  S
C1637      C1638   1.416       .  A
C1638      C1639   1.512       .  S
C1639      F1643   1.385       .  S
C1639      F1644   1.383       .  S
C1639      F1645   1.382       .  S
C1642      F1646   1.384       .  S
C1642      F1647   1.383       .  S
C1642      F1648   1.383       .  S
C1649      C1650   1.403       .  A
C1649      C1654   1.414       .  A
C1649      H1656   1.083       .  S
C1650      C1651   1.412       .  A
C1651      C1652   1.405       .  A
C1651      C1658   1.518       .  S
C1652      C1653   1.411       .  A
C1652      H1657   1.082       .  S
C1653      C1654   1.427       .  A
C1654      C1655   1.520       .  S
C1655      F1659   1.385       .  S
C1655      F1661   1.384       .  S
C1658      F1662   1.380       .  S
C1658      F1663   1.381   1_565  S
C1658      F1664   1.385       .  S
C1665      C1670   1.408       .  A
C1665      H1672   1.083       .  S
C1666      C1667   1.416       .  A
C1667      C1668   1.407       .  A
C1667      C1674   1.517       .  S
C1668      C1669   1.402       .  A
C1668      H1673   1.084       .  S
C1670      C1671   1.519       .  S
C1671      F1675   1.383       .  S
C1671      F1676   1.383       .  S
C1671      F1677   1.382       .  S
C1674      F1678   1.382   1_455  S
C1674      F1679   1.381       .  S
C1674      F1680   1.384       .  S
C1681      C1682   1.401       .  A
C1681      C1686   1.404       .  A
C1681      H1688   1.082       .  S
C1682      C1683   1.438       .  A
C1683      C1684   1.410   1_545  A
C1683      C1690   1.523   1_545  S
C1684      C1685   1.393   1_565  A
C1684      H1689   1.083       .  S
C1685      C1686   1.422       .  A
C1686      C1687   1.516       .  S
C1687      F1691   1.385       .  S
C1687      F1692   1.380       .  S
C1687      F1693   1.381       .  S
C1690      F1694   1.383       .  S
C1690      F1695   1.383   1_565  S
C1690      F1696   1.385       .  S
C1697      C1698   1.406       .  A
C1697      C1702   1.405       .  A
C1697      H1704   1.083       .  S
C1698      C1699   1.413       .  A
C1699      C1700   1.404       .  A
C1699      C1706   1.512       .  S
C1700      C1701   1.401       .  A
C1700      H1705   1.084       .  S
C1701      C1702   1.411       .  A
C1702      C1703   1.515   1_565  S
C1703      F1707   1.385       .  S
C1703      F1708   1.379       .  S
C1703      F1709   1.383       .  S
C1706      F1710   1.381       .  S
C1706      F1711   1.380       .  S
C1706      F1712   1.385       .  S
C1713      C1714   1.405       .  A
C1713      C1718   1.401       .  A
C1713      H1720   1.077       .  S
C1714      C1715   1.421       .  A
C1715      C1716   1.407       .  A
C1715      C1722   1.518       .  S
C1716      C1717   1.402       .  A
C1716      H1721   1.082       .  S
C1717      C1718   1.416       .  A
C1718      C1719   1.522       .  S
C1719      F1723   1.385       .  S
C1719      F1724   1.382       .  S
C1719      F1725   1.382       .  S
C1722      F1726   1.384   1_655  S
C1722      F1727   1.381   1_655  S
C1722      F1728   1.385       .  S
C1729      C1730   1.409       .  A
C1729      C1734   1.405       .  A
C1729      H1736   1.083       .  S
C1730      C1731   1.412       .  A
C1731      C1732   1.407       .  A
C1731      C1738   1.515   1_455  S
C1732      C1733   1.408       .  A
C1732      H1737   1.083       .  S
C1733      C1734   1.411       .  A
C1734      C1735   1.516       .  S
C1735      F1739   1.383       .  S
C1735      F1740   1.382       .  S
C1735      F1741   1.382       .  S
C1738      F1742   1.382       .  S
C1738      F1743   1.378       .  S
C1738      F1744   1.384       .  S
C1745      C1746   1.396       .  A
C1745      C1750   1.407       .  A
C1745      H1752   1.083       .  S
C1746      C1747   1.418   1_455  A
C1747      C1748   1.403       .  A
C1747      C1754   1.514       .  S
C1748      C1749   1.399       .  A
C1748      H1753   1.083       .  S
C1749      C1750   1.427   1_655  A
C1750      C1751   1.520       .  S
C1751      F1755   1.385       .  S
C1751      F1756   1.384       .  S
C1751      F1757   1.382       .  S
C1754      F1758   1.383       .  S
C1754      F1759   1.381       .  S
C1754      F1760   1.385       .  S
C1761      C1762   1.403       .  A
C1761      C1766   1.412       .  A
C1761      H1768   1.084       .  S
C1762      C1763   1.419       .  A
C1763      C1764   1.409       .  A
C1763      C1770   1.514       .  S
C1764      C1765   1.404       .  A
C1764      H1769   1.083       .  S
C1765      C1766   1.423       .  A
C1766      C1767   1.517       .  S
C1767      F1771   1.384       .  S
C1767      F1772   1.384       .  S
C1767      F1773   1.383       .  S
C1770      F1774   1.381       .  S
C1770      F1775   1.383       .  S
C1770      F1776   1.383       .  S
C1777      C1778   1.408       .  A
C1777      C1782   1.403       .  A
C1777      H1784   1.078       .  S
C1778      C1779   1.427       .  A
C1779      C1780   1.409       .  A
C1779      C1786   1.522       .  S
C1780      C1781   1.400       .  A
C1780      H1785   1.081       .  S
C1781      C1782   1.415       .  A
C1782      C1783   1.521       .  S
C1783      F1787   1.385       .  S
C1783      F1788   1.382       .  S
C1783      F1789   1.381       .  S
C1786      F1790   1.383   1_545  S
C1786      F1791   1.382   1_545  S
C1786      F1792   1.385       .  S
C1793      C1794   1.412       .  A
C1793      C1798   1.418       .  A
C1793      H1800   1.083       .  S
C1794      C1795   1.418       .  A
C1795      C1796   1.409       .  A
C1795      C1802   1.517       .  S
C1796      C1797   1.405       .  A
C1797      C1798   1.412       .  A
C1798      C1799   1.514       .  S
C1799      F1803   1.384       .  S
C1799      F1804   1.383       .  S
C1802      F1806   1.383       .  S
C1802      F1807   1.383       .  S
C1802      F1808   1.384       .  S
C1809      C1810   1.395       .  A
C1809      C1814   1.403       .  A
C1809      H1816   1.084       .  S
C1810      C1811   1.426       .  A
C1811      C1812   1.419       .  A
C1811      C1818   1.514       .  S
C1812      C1813   1.402       .  A
C1812      H1817   1.083       .  S
C1813      C1814   1.424       .  A
C1814      C1815   1.512       .  S
C1815      F1819   1.385       .  S
C1815      F1820   1.379       .  S
C1815      F1821   1.381       .  S
C1818      F1822   1.383       .  S
C1818      F1823   1.378       .  S
C1818      F1824   1.385       .  S
C1825      C1826   1.408       .  A
C1825      C1830   1.413       .  A
C1825      H1832   1.082       .  S
C1826      C1827   1.419       .  A
C1827      C1828   1.413       .  A
C1827      C1834   1.517       .  S
C1828      C1829   1.409       .  A
C1828      H1833   1.081       .  S
C1829      C1830   1.420       .  A
C1830      C1831   1.516       .  S
C1831      F1835   1.385       .  S
C1831      F1836   1.383       .  S
C1831      F1837   1.379       .  S
C1834      F1838   1.385       .  S
C1834      F1839   1.383       .  S
C1834      F1840   1.379       .  S
C1841      C1842   1.400       .  A
C1841      C1846   1.416       .  A
C1841      H1848   1.083       .  S
C1842      C1843   1.420       .  A
C1843      C1844   1.399       .  A
C1843      C1850   1.509       .  S
C1844      C1845   1.396       .  A
C1844      H1849   1.084       .  S
C1845      C1846   1.427       .  A
C1846      C1847   1.513       .  S
C1847      F1851   1.385       .  S
C1847      F1852   1.378       .  S
C1847      F1853   1.382       .  S
C1850      F1854   1.381       .  S
C1850      F1855   1.378       .  S
C1850      F1856   1.385       .  S
C1857      C1858   1.407       .  A
C1857      C1862   1.407       .  A
C1857      H1864   1.083       .  S
C1858      C1859   1.424       .  A
C1859      C1860   1.404       .  A
C1859      C1866   1.522       .  S
C1860      C1861   1.400       .  A
C1860      H1865   1.082       .  S
C1861      C1862   1.415       .  A
C1862      C1863   1.514       .  S
C1863      F1867   1.385       .  S
C1863      F1868   1.383       .  S
C1863      F1869   1.382       .  S
C1866      F1870   1.383       .  S
C1866      F1871   1.383       .  S
C1866      F1872   1.384       .  S
C1873      C1874   1.412       .  A
C1873      C1878   1.412       .  A
C1873      H1880   1.083       .  S
C1874      C1875   1.418       .  A
C1875      C1876   1.409       .  A
C1875      C1882   1.519       .  S
C1876      C1877   1.408       .  A
C1876      H1881   1.083       .  S
C1877      C1878   1.413       .  A
C1878      C1879   1.517       .  S
C1879      F1883   1.384       .  S
C1879      F1884   1.383       .  S
C1879      F1885   1.382       .  S
C1882      F1886   1.381       .  S
C1882      F1887   1.383       .  S
C1882      F1888   1.385       .  S
C1889      C1890   1.410       .  A
C1889      C1894   1.404       .  A
C1889      H1896   1.084       .  S
C1890      C1891   1.416       .  A
C1891      C1892   1.411       .  A
C1891      C1898   1.511       .  S
C1892      C1893   1.403       .  A
C1892      H1897   1.078       .  S
C1893      C1894   1.410       .  A
C1894      C1895   1.512       .  S
C1895      F1899   1.380       .  S
C1895      F1900   1.381       .  S
C1895      F1901   1.383       .  S
C1898      F1902   1.376       .  S
C1898      F1903   1.384       .  S
C1898      F1904   1.384       .  S
C1905      C1906   1.407       .  A
C1905      C1910   1.409       .  A
C1905      H1912   1.083       .  S
C1907      C1908   1.407       .  A
C1907      C1914   1.517       .  S
C1908      H1913   1.083       .  S
C1909      C1910   1.411       .  A
C1910      C1911   1.514       .  S
C1911      F1915   1.384       .  S
C1911      F1916   1.383       .  S
C1911      F1917   1.383       .  S
C1914      F1918   1.383       .  S
C1914      F1919   1.382       .  S
C1914      F1920   1.385       .  S
C1921      C1922   1.400       .  A
C1921      C1926   1.409       .  A
C1921      H1928   1.084       .  S
C1922      C1923   1.418       .  A
C1923      C1924   1.414       .  A
C1923      C1930   1.510       .  S
C1924      C1925   1.408       .  A
C1924      H1929   1.082       .  S
C1925      C1926   1.423       .  A
C1926      C1927   1.508       .  S
C1927      F1931   1.385       .  S
C1927      F1932   1.384       .  S
C1927      F1933   1.383       .  S
C1930      F1934   1.384       .  S
C1930      F1935   1.382       .  S
C1930      F1936   1.384       .  S
C1937      H1944   1.083       .  S
C1938      C1939   1.425       .  A
C1939      C1940   1.412       .  A
C1939      C1946   1.520       .  S
C1940      C1941   1.403       .  A
C1940      H1945   1.083       .  S
C1941      C1942   1.418       .  A
C1943      F1947   1.385       .  S
C1943      F1948   1.383   1_556  S
C1943      F1949   1.384       .  S
C1946      F1950   1.385       .  S
C1946      F1951   1.383       .  S
C1946      F1952   1.384       .  S
C1953      H1960   1.084       .  S
C1954      C1955   1.428       .  A
C1955      C1956   1.399       .  A
C1955      C1962   1.511       .  S
C1956      C1957   1.392       .  A
C1956      H1961   1.084       .  S
C1957      C1958   1.424       .  A
C1959      F1963   1.385       .  S
C1959      F1964   1.382       .  S
C1962      F1966   1.376       .  S
C1962      F1967   1.380       .  S
C1962      F1968   1.385       .  S
C1969      C1970   1.406       .  A
C1969      C1974   1.406       .  A
C1969      H1976   1.083       .  S
C1970      C1971   1.422       .  A
C1972      H1977   1.083       .  S
C1973      C1974   1.418       .  A
C1974      C1975   1.522       .  S
C1975      F1979   1.384       .  S
C1975      F1980   1.384       .  S
C1978      F1983   1.383       .  S
C1978      F1984   1.385       .  S
C1985      C1986   1.406       .  A
C1985      C1990   1.411       .  A
C1985      H1992   1.082       .  S
C1986      C1987   1.413       .  A
C1987      C1988   1.414       .  A
C1987      C1994   1.515       .  S
C1988      C1989   1.410       .  A
C1988      H1993   1.083       .  S
C1989      C1990   1.416       .  A
C1990      C1991   1.518       .  S
C1991      F1995   1.385       .  S
C1991      F1996   1.382       .  S
C1991      F1997   1.383       .  S
C1994      F1998   1.383       .  S
C1994      F1999   1.383       .  S
C1994      F2000   1.385       .  S
C2001      C2002   1.398       .  A
C2001      C2006   1.407       .  A
C2001      H2008   1.082       .  S
C2002      C2003   1.406       .  A
C2003      C2004   1.407       .  A
C2003      C2010   1.514       .  S
C2004      C2005   1.413       .  A
C2004      H2009   1.081       .  S
C2005      C2006   1.426       .  A
C2006      C2007   1.521       .  S
C2007      F2011   1.382       .  S
C2007      F2012   1.383       .  S
C2007      F2013   1.380       .  S
C2010      F2014   1.384       .  S
C2010      F2015   1.382       .  S
C2010      F2016   1.385       .  S
C2017      C2018   1.410       .  A
C2017      C2022   1.410       .  A
C2017      H2024   1.083       .  S
C2018      C2019   1.414       .  A
C2019      C2020   1.408       .  A
C2019      C2026   1.515       .  S
C2020      C2021   1.407       .  A
C2020      H2025   1.083       .  S
C2021      C2022   1.413       .  A
C2022      C2023   1.516       .  S
C2023      F2027   1.384       .  S
C2023      F2028   1.379       .  S
C2023      F2029   1.382       .  S
C2026      F2030   1.384       .  S
C2026      F2031   1.381       .  S
C2026      F2032   1.383       .  S
C2033      C2034   1.398       .  A
C2033      C2038   1.407       .  A
C2033      H2040   1.083       .  S
C2034      C2035   1.422       .  A
C2035      C2036   1.405       .  A
C2035      C2042   1.518       .  S
C2036      C2037   1.399       .  A
C2036      H2041   1.083       .  S
C2037      C2038   1.425       .  A
C2038      C2039   1.520       .  S
C2039      F2043   1.385       .  S
C2039      F2044   1.382       .  S
C2039      F2045   1.383       .  S
C2042      F2046   1.382       .  S
C2042      F2047   1.380       .  S
C2042      F2048   1.385       .  S
C2049      C2050   1.405       .  A
C2049      C2054   1.414       .  A
C2049      H2056   1.084       .  S
C2050      C2051   1.419       .  A
C2051      C2052   1.407       .  A
C2051      C2058   1.516       .  S
C2052      C2053   1.405       .  A
C2052      H2057   1.084       .  S
C2053      C2054   1.424       .  A
C2054      C2055   1.518       .  S
C2055      F2059   1.385       .  S
C2055      F2060   1.382       .  S
C2055      F2061   1.384       .  S
C2058      F2062   1.383       .  S
C2058      F2063   1.384       .  S
C2058      F2064   1.384       .  S
C2065      C2066   1.408       .  A
C2065      C2070   1.411       .  A
C2065      H2072   1.084       .  S
C2066      C2067   1.415       .  A
C2067      C2068   1.406       .  A
C2067      C2074   1.519       .  S
C2068      C2069   1.404       .  A
C2068      H2073   1.083       .  S
C2069      C2070   1.411       .  A
C2070      C2071   1.515       .  S
C2071      F2075   1.385       .  S
C2071      F2076   1.383       .  S
C2071      F2077   1.383       .  S
C2074      F2078   1.383       .  S
C2074      F2079   1.382       .  S
C2074      F2080   1.385       .  S
C2081      C2082   1.397       .  A
C2081      C2086   1.407       .  A
C2081      H2088   1.084       .  S
C2082      C2083   1.409       .  A
C2083      C2084   1.406       .  A
C2083      C2090   1.517       .  S
C2084      C2085   1.412       .  A
C2084      H2089   1.082       .  S
C2085      C2086   1.428       .  A
C2086      C2087   1.521       .  S
C2087      F2091   1.385       .  S
C2087      F2092   1.380       .  S
C2087      F2093   1.382       .  S
C2090      F2094   1.383       .  S
C2090      F2095   1.382       .  S
C2090      F2096   1.384       .  S
C2097      C2098   1.400       .  A
C2097      C2102   1.407       .  A
C2097      H2104   1.083       .  S
C2098      C2099   1.412       .  A
C2099      C2100   1.408       .  A
C2099      C2106   1.519       .  S
C2100      C2101   1.413       .  A
C2100      H2105   1.082       .  S
C2101      C2102   1.428       .  A
C2102      C2103   1.522       .  S
C2103      F2107   1.385       .  S
C2103      F2108   1.383       .  S
C2103      F2109   1.381       .  S
C2106      F2110   1.382       .  S
C2106      F2111   1.384       .  S
C2106      F2112   1.385       .  S
C2113      C2114   1.405       .  A
C2113      C2118   1.410       .  A
C2113      H2120   1.083       .  S
C2114      C2115   1.407       .  A
C2115      C2116   1.394       .  A
C2115      C2122   1.518       .  S
C2116      C2117   1.408       .  A
C2116      H2121   1.081       .  S
C2117      C2118   1.417       .  A
C2118      C2119   1.516       .  S
C2119      F2123   1.385       .  S
C2119      F2124   1.383       .  S
C2119      F2125   1.382       .  S
C2122      F2126   1.382       .  S
C2122      F2127   1.385       .  S
C2122      F2128   1.382       .  S
C2129      C2130   1.392       .  A
C2129      C2134   1.403       .  A
C2129      H2136   1.084       .  S
C2130      C2131   1.412       .  A
C2131      C2132   1.403       .  A
C2131      C2138   1.513       .  S
C2132      C2133   1.403       .  A
C2132      H2137   1.083       .  S
C2133      C2134   1.434       .  A
C2134      C2135   1.524       .  S
C2135      F2139   1.385       .  S
C2135      F2140   1.384       .  S
C2135      F2141   1.384       .  S
C2138      F2142   1.383       .  S
C2138      F2143   1.381       .  S
C2138      F2144   1.385       .  S
C2145      C2150   1.407   1_556  A
C2145      H2152   1.084       .  S
C2146      C2147   1.428       .  A
C2147      C2148   1.408       .  A
C2147      C2154   1.506       .  S
C2148      C2149   1.391       .  A
C2148      H2153   1.084       .  S
C2150      C2151   1.511   1_554  S
C2151      F2155   1.384       .  S
C2151      F2156   1.382       .  S
C2151      F2157   1.383   1_556  S
C2154      F2158   1.380       .  S
C2154      F2159   1.379       .  S
C2154      F2160   1.385       .  S
C2161      C2162   1.401       .  A
C2161      C2166   1.413       .  A
C2161      H2168   1.083       .  S
C2162      C2163   1.414       .  A
C2163      C2164   1.402       .  A
C2164      C2165   1.411       .  A
C2164      H2169   1.081       .  S
C2165      C2166   1.425       .  A
C2166      C2167   1.513       .  S
C2167      F2171   1.383       .  S
C2167      F2172   1.383       .  S
C2170      F2175   1.382       .  S
C2170      F2176   1.384       .  S
C2177      C2178   1.409       .  A
C2177      C2182   1.406       .  A
C2177      H2184   1.083       .  S
C2178      C2179   1.413       .  A
C2179      C2180   1.399       .  A
C2179      C2186   1.520       .  S
C2180      C2181   1.406       .  A
C2180      H2185   1.082       .  S
C2181      C2182   1.411       .  A
C2182      C2183   1.518       .  S
C2183      F2187   1.385       .  S
C2183      F2188   1.382       .  S
C2183      F2189   1.383       .  S
C2186      F2190   1.382       .  S
C2186      F2191   1.382       .  S
C2186      F2192   1.385       .  S
C2193      C2194   1.405       .  A
C2193      C2198   1.406       .  A
C2193      H2200   1.083       .  S
C2194      C2195   1.408       .  A
C2195      C2196   1.407       .  A
C2195      C2202   1.517       .  S
C2196      C2197   1.413       .  A
C2196      H2201   1.083       .  S
C2197      C2198   1.416       .  A
C2198      C2199   1.518       .  S
C2199      F2203   1.385       .  S
C2199      F2204   1.383       .  S
C2199      F2205   1.382       .  S
C2202      F2206   1.383       .  S
C2202      F2207   1.383       .  S
C2202      F2208   1.385       .  S
C2209      C2210   1.402       .  A
C2209      C2214   1.405       .  A
C2209      H2216   1.083       .  S
C2210      C2211   1.420       .  A
C2211      C2212   1.410       .  A
C2211      C2218   1.517       .  S
C2212      C2213   1.406       .  A
C2212      H2217   1.084       .  S
C2213      C2214   1.423       .  A
C2214      C2215   1.517       .  S
C2215      F2219   1.385       .  S
C2215      F2220   1.379       .  S
C2215      F2221   1.383       .  S
C2218      F2222   1.376       .  S
C2218      F2223   1.383       .  S
C2218      F2224   1.385       .  S
C2225      C2226   1.405       .  A
C2225      C2230   1.405       .  A
C2225      H2232   1.083       .  S
C2226      C2227   1.416       .  A
C2227      C2228   1.405       .  A
C2227      C2234   1.519       .  S
C2228      C2229   1.407       .  A
C2228      H2233   1.083       .  S
C2229      C2230   1.421       .  A
C2230      C2231   1.520       .  S
C2231      F2235   1.385       .  S
C2231      F2236   1.383       .  S
C2231      F2237   1.379       .  S
C2234      F2239   1.381       .  S
C2234      F2240   1.385       .  S
