geometry optimzed in LAMMPS
_audit_creation_date              2020-12-01 
_audit_creation_method            'lammps2cif' 
_symmetry_space_group_name_H-M    'P1' 
_symmetry_Int_Tables_number       1 
_symmetry_cell_setting            triclinic 
loop_ 
_symmetry_equiv_pos_as_xyz 
  x,y,z 
_cell_length_a                    56.49555448 
_cell_length_b                    56.21116297747184 
_cell_length_c                    44.73583011776853 
_cell_angle_alpha                 89.55114776485313 
_cell_angle_beta                  89.99468600630652 
_cell_angle_gamma                 90.20837178554937 
loop_ 
_atom_site_label 
_atom_site_type_symbol 
_atom_site_fract_x 
_atom_site_fract_y 
_atom_site_fract_z 
_atom_site_charge 
Fe1        Fe  0.84187474  0.26392622  0.24048124     1.65800
Fe2        Fe  0.89251392  0.23725383  0.25963511     1.73200
Fe3        Fe  0.85096479  0.20653918  0.22255842     1.54400
O4          O  0.81519414  0.21169109  0.23270667    -0.82500
O5          O  0.90849184  0.22710500  0.22059923    -0.80800
O6          O  0.81453485  0.24529133  0.25853858    -0.85000
O7          O  0.82971752  0.25733619  0.19789070    -0.79900
O8          O  0.85475096  0.18800305  0.26225053    -0.81600
O9          O  0.89967715  0.27224469  0.24761726    -0.84400
C10         C  0.83707709  0.24396252  0.17727005     0.96400
C11         C  0.80454153  0.22676700  0.24885808     1.03800
O12         O  0.86167028  0.23593776  0.24100804    -1.13400
O13         O  0.87732322  0.24715854  0.29925651    -0.75800
O14         O  0.85098408  0.27378138  0.28337894    -0.79300
O15         O  0.84740841  0.22433918  0.18257626    -0.80000
C16         C  0.86216999  0.26326143  0.30419467     0.95300
O17         O  0.86825741  0.28446725  0.22196188    -0.77900
O18         O  0.89026119  0.20255724  0.27443317    -0.83100
C19         C  0.90445478  0.20833820  0.20593063     0.97900
C20         C  0.87358925  0.18757261  0.27770170     1.03800
O21         O  0.88506839  0.19706996  0.20922221    -0.78800
C22         C  0.88970449  0.28657433  0.22965841     1.02100
Fe23       Fe  0.66783873  0.26538246  0.29162781     1.65800
Fe24       Fe  0.61950749  0.24045986  0.26128502     1.73200
Fe25       Fe  0.65878718  0.20622636  0.30058691     1.54400
O26         O  0.69279103  0.21057147  0.28338452    -0.82500
O27         O  0.60027517  0.21881346  0.28978802    -0.80800
O28         O  0.69961492  0.24788211  0.29530693    -0.85000
O29         O  0.66255433  0.26111657  0.33653005    -0.79900
O30         O  0.65041443  0.18764110  0.26184201    -0.81600
O31         O  0.60760718  0.26906001  0.28596031    -0.84400
C32         C  0.66422660  0.24256042  0.35281804     0.96400
C33         C  0.70668534  0.22822433  0.28545192     1.03800
O34         O  0.64848817  0.23704933  0.28449705    -1.13400
O35         O  0.63650364  0.26192603  0.22935747    -0.75800
O36         O  0.67302144  0.26943014  0.24634976    -0.79300
O37         O  0.66701969  0.22166316  0.34218708    -0.80000
C38         C  0.65780680  0.26902519  0.22546150     0.95300
O39         O  0.64054467  0.28981435  0.29022302    -0.77900
O40         O  0.62708954  0.21169782  0.23503328    -0.83100
C41         C  0.60473291  0.20305125  0.30949401     0.97900
C42         C  0.63767701  0.19205486  0.23899566     1.03800
O43         O  0.62566669  0.19779528  0.31758134    -0.78800
C44         C  0.61834206  0.28804250  0.29273033     1.02100
Fe45       Fe  0.84055865  0.27391777  0.48936140     1.65800
Fe46       Fe  0.89033643  0.30142346  0.01853834     1.73200
Fe47       Fe  0.85136518  0.33262643  0.47022340     1.54400
O48         O  0.84612143  0.31361032  0.43134696    -0.82500
O49         O  0.88181063  0.33427359  0.03639995    -0.80800
O50         O  0.84135537  0.27526635  0.44390384    -0.85000
O51         O  0.80901619  0.29217189  0.49183082    -0.79900
O52         O  0.88559349  0.33952197  0.45584268    -0.81600
O53         O  0.87294996  0.28489637  0.05338933    -0.84400
C54         C  0.80241309  0.31367249  0.49042142     0.96400
C55         C  0.84404970  0.29174483  0.42483475     1.03800
O56         O  0.86005882  0.30319714  0.49265351    -1.13400
O57         O  0.90115954  0.27119112  0.50168679    -0.75800
O58         O  0.86946412  0.25107041  0.48687287    -0.79300
O59         O  0.81607863  0.33056000  0.48269584    -0.80000
C60         C  0.89166029  0.25263400  0.49117610     0.95300
O61         O  0.84080358  0.26750067  0.03502056    -0.77900
O62         O  0.90900089  0.32002466  0.48744369    -0.83100
C63         C  0.87003362  0.35256951  0.02859672     0.97900
C64         C  0.90598714  0.33420776  0.46570944     1.03800
O65         O  0.85721669  0.35333239  0.00527292    -0.78800
C66         C  0.85395340  0.27309318  0.05669436     1.02100
Fe67       Fe  0.67111791  0.27138956  0.04199768     1.65800
Fe68       Fe  0.62353448  0.29726264  0.01257296     1.73200
Fe69       Fe  0.66053762  0.33061863  0.05257167     1.54400
O70         O  0.67585462  0.31577892  0.09109583    -0.82500
O71         O  0.63244577  0.32064246  0.48728367    -0.80800
O72         O  0.67047069  0.27669369  0.08731989    -0.85000
O73         O  0.70219334  0.29110253  0.03650440    -0.79900
O74         O  0.62897754  0.33307447  0.07568191    -0.81600
O75         O  0.63395829  0.26965835  0.48925199    -0.84400
C76         C  0.70729224  0.31240439  0.02865577     0.96400
C77         C  0.67400340  0.29513640  0.10285658     1.03800
O78         O  0.65154967  0.29937497  0.03653402    -1.13400
O79         O  0.60940723  0.27073794  0.03850185    -0.75800
O80         O  0.64186491  0.24911575  0.04792275    -0.79300
O81         O  0.69248890  0.32945260  0.02965141    -0.80000
C82         C  0.61949452  0.25205419  0.04810482     0.95300
O83         O  0.67247322  0.26973727  0.49518680    -0.77900
O84         O  0.60507575  0.32187349  0.03903342    -0.83100
C85         C  0.63266111  0.34241129  0.49385064     0.97900
C86         C  0.60852025  0.33209321  0.06396788     1.03800
O87         O  0.64432067  0.35067804  0.01797530    -0.78800
C88         C  0.65446527  0.26630853  0.47875084     1.02100
Fe89       Fe  0.50769372  0.43372701  0.35995139     1.65800
Fe90       Fe  0.52990065  0.38469540  0.39043716     1.73200
Fe91       Fe  0.56598028  0.42014828  0.35102609     1.54400
O92         O  0.55277795  0.43561571  0.31186241    -0.82500
O93         O  0.55402256  0.39912628  0.41863159    -0.80800
O94         O  0.51354836  0.43228353  0.31500073    -0.85000
O95         O  0.52870883  0.46416693  0.36419233    -0.79900
O96         O  0.56798991  0.38821058  0.32891842    -0.81600
O97         O  0.50516711  0.39910311  0.41832215    -0.84400
C98         C  0.55005019  0.46813172  0.37210057     0.96400
C99         C  0.53234042  0.43513696  0.29989019     1.03800
O100        O  0.53420673  0.41264144  0.36616090    -1.13400
O101        O  0.50351742  0.37151847  0.36406581    -0.75800
O102        O  0.48405817  0.40517774  0.35478454    -0.79300
O103        O  0.56596501  0.45227997  0.37241490    -0.80000
C104        C  0.48509723  0.38246633  0.35530552     0.95300
O105        O  0.49982753  0.43645514  0.40522372    -0.77900
O106        O  0.55495276  0.36497216  0.36591389    -0.83100
C107        C  0.57567989  0.39804073  0.41302505     0.97900
C108        C  0.56624045  0.36797693  0.34144585     1.03800
O109        O  0.58367245  0.40451413  0.38764342    -0.78800
C110        C  0.49768360  0.41968477  0.42416222     1.02100
Fe111      Fe  0.51420601  0.59953722  0.41676969     1.65800
Fe112      Fe  0.53697847  0.65140298  0.38909151     1.73200
Fe113      Fe  0.57294000  0.61333067  0.42819796     1.54400
O114        O  0.55875222  0.60444434  0.46934142    -0.82500
O115        O  0.56697761  0.64629658  0.36446734    -0.80800
O116        O  0.52027757  0.59803195  0.46192984    -0.85000
O117        O  0.53396083  0.56976274  0.40860997    -0.79900
O118        O  0.57800605  0.64712145  0.44476720    -0.81600
O119        O  0.51834277  0.63475592  0.35563338    -0.84400
C120        C  0.55561566  0.56418197  0.40783538     0.96400
C121        C  0.53796059  0.60071752  0.47903923     1.03800
O122        O  0.54144581  0.62135875  0.41119847    -1.13400
O123        O  0.50639928  0.66025523  0.41174091    -0.75800
O124        O  0.49025764  0.62582044  0.42597535    -0.79300
O125        O  0.57220459  0.57849982  0.41400117    -0.80000
C126        C  0.48992390  0.64822969  0.42383950     0.95300
O127        O  0.50479248  0.59987676  0.37205725    -0.77900
O128        O  0.55548855  0.67196310  0.41902000    -0.83100
C129        C  0.58620362  0.63486746  0.36689878     0.97900
C130        C  0.57075539  0.66796959  0.43911708     1.03800
O131        O  0.59100296  0.62166768  0.38918738    -0.78800
C132        C  0.50709465  0.61547043  0.35158544     1.02100
Fe133      Fe  0.50203204  0.43107209  0.11222510     1.65800
Fe134      Fe  0.47774748  0.38185177  0.14422907     1.73200
Fe135      Fe  0.44306788  0.41890049  0.10175966     1.54400
O136        O  0.44566905  0.45527459  0.11016415    -0.82500
O137        O  0.46386862  0.36054024  0.11134047    -0.80800
O138        O  0.48339865  0.46102758  0.12220967    -0.85000
O139        O  0.49519908  0.43420078  0.06709376    -0.79900
O140        O  0.42464436  0.41497228  0.14136647    -0.81600
O141        O  0.51162340  0.37312643  0.12917993    -0.84400
C142        C  0.47802201  0.42881774  0.05017122     0.96400
C143        C  0.46245139  0.46854949  0.11897728     1.03800
O144        O  0.47424014  0.41065931  0.11943726    -1.13400
O145        O  0.49165227  0.40119163  0.17905639    -0.75800
O146        O  0.51231387  0.43022705  0.15643138    -0.79300
O147        O  0.45773936  0.42274019  0.05976520    -0.80000
C148        C  0.50580763  0.41879921  0.17957998     0.95300
O149        O  0.52431177  0.40342060  0.10154052    -0.77900
O150        O  0.44430956  0.38511819  0.16297493    -0.83100
C151        C  0.44542077  0.36349937  0.09555282     0.97900
C152        C  0.42618387  0.39831775  0.16052188     1.03800
O153        O  0.43582667  0.38372034  0.09160570    -0.78800
C154        C  0.52677687  0.38248145  0.11167248     1.02100
Fe155      Fe  0.49965233  0.60521600  0.16638880     1.65800
Fe156      Fe  0.47160386  0.65193237  0.13370669     1.73200
Fe157      Fe  0.44108870  0.61362556  0.17906804     1.54400
O158        O  0.44418486  0.57950122  0.16099883    -0.82500
O159        O  0.45062374  0.67131980  0.16191805    -0.80800
O160        O  0.48235978  0.57301738  0.16816275    -0.85000
O161        O  0.49672135  0.60869771  0.21180077    -0.79900
O162        O  0.41944557  0.62254100  0.14346805    -0.81600
O163        O  0.50152482  0.66608991  0.15467476    -0.84400
C164        C  0.47887572  0.60608864  0.22867599     0.96400
C165        C  0.46213675  0.56587305  0.16018855     1.03800
O166        O  0.47073124  0.62378099  0.15973452    -1.13400
O167        O  0.49184415  0.63553881  0.10183887    -0.75800
O168        O  0.50453145  0.60101346  0.12078439    -0.79300
O169        O  0.45785481  0.60403197  0.21885109    -0.80000
C170        C  0.50194361  0.61556925  0.09914810     0.95300
O171        O  0.52214200  0.63397612  0.16696962    -0.77900
O172        O  0.44208142  0.64142360  0.11005467    -0.83100
C173        C  0.43896318  0.66816493  0.18577694     0.97900
C174        C  0.42237023  0.63275742  0.11840616     1.03800
O175        O  0.43583173  0.64740531  0.19689528    -0.78800
C176        C  0.52030390  0.65628726  0.16445238     1.02100
Fe177      Fe  0.34612065  0.75924667  0.48953434     1.65800
Fe178      Fe  0.39433641  0.73134430  0.01913538     1.73200
Fe179      Fe  0.35455201  0.70040177  0.47673169     1.54400
O180        O  0.31808305  0.70666029  0.48189091    -0.82500
O181        O  0.41334334  0.71840300  0.48442671    -0.80800
O182        O  0.31558620  0.74259609  0.50190836    -0.85000
O183        O  0.34091998  0.75283751  0.44417765    -0.79900
O184        O  0.35523670  0.68225718  0.01714632    -0.81600
O185        O  0.40328798  0.76562822  0.50676538    -0.84400
C186        C  0.34846683  0.73693087  0.42649944     0.96400
C187        C  0.30620516  0.72323398  0.49396746     1.03800
O188        O  0.36458695  0.73035646  0.49526632    -1.13400
O189        O  0.37650347  0.74562198  0.05474730    -0.75800
O190        O  0.34969926  0.76953377  0.03338176    -0.79300
O191        O  0.35510911  0.71649082  0.43525470    -0.80000
C192        C  0.36076343  0.76167255  0.05613705     0.95300
O193        O  0.37482507  0.77906520  0.47699746    -0.77900
O194        O  0.38810114  0.69792079  0.03661289    -0.83100
C195        C  0.40975372  0.69884491  0.47119159     0.97900
C196        C  0.37218958  0.68196152  0.03566681     1.03800
O197        O  0.38924975  0.68954626  0.46920636    -0.78800
C198        C  0.39499375  0.78107521  0.48891497     1.02100
Fe199      Fe  0.16733288  0.76499307  0.03721595     1.65800
Fe200      Fe  0.12141189  0.74047591  0.99908009     1.73200
Fe201      Fe  0.15665858  0.70523726  0.04320225     1.54400
O202        O  0.19275768  0.70880924  0.03089840    -0.82500
O203        O  0.09848894  0.72602120  0.02985475    -0.80800
O204        O  0.19875759  0.74780337  0.02985650    -0.85000
O205        O  0.16823423  0.75686185  0.08220505    -0.79900
O206        O  0.15176492  0.68648274  0.00413204    -0.81600
O207        O  0.11197011  0.77429634  0.01290855    -0.84400
C208        C  0.16631174  0.73801672  0.09774984     0.96400
C209        C  0.20627255  0.72682702  0.02642365     1.03800
O210        O  0.14846706  0.73679034  0.02657043    -1.13400
O211        O  0.14266297  0.75231604  0.46704007    -0.75800
O212        O  0.16733443  0.77573998  0.49284832    -0.79300
O213        O  0.16269220  0.71789245  0.08599294    -0.80000
C214        C  0.15846241  0.76833031  0.46843250     0.95300
O215        O  0.13836628  0.78561693  0.04642406    -0.77900
O216        O  0.12489124  0.70551304  0.48098039    -0.83100
C217        C  0.10078738  0.70902540  0.04850859     0.97900
C218        C  0.13719299  0.68696340  0.48461491     1.03800
O219        O  0.12080035  0.69953260  0.05517760    -0.78800
C220        C  0.11926625  0.78886482  0.03229938     1.02100
Fe221      Fe  0.34377438  0.77293162  0.23848448     1.65800
Fe222      Fe  0.39245018  0.80060323  0.26456814     1.73200
Fe223      Fe  0.35248599  0.83200131  0.22492516     1.54400
O224        O  0.35229489  0.81598571  0.18370557    -0.82500
O225        O  0.38735028  0.83407381  0.28196465    -0.80800
O226        O  0.33624758  0.78044130  0.19389180    -0.85000
O227        O  0.31384372  0.78974279  0.25348597    -0.79900
O228        O  0.38677958  0.84394855  0.21627019    -0.81600
O229        O  0.37599447  0.78646835  0.30178418    -0.84400
C230        C  0.30500246  0.80966789  0.24629803     0.96400
C231        C  0.34478176  0.79568405  0.17562238     1.03800
O232        O  0.36271487  0.80180342  0.24297933    -1.13400
O233        O  0.40200798  0.76700117  0.25044743    -0.75800
O234        O  0.37188430  0.75341507  0.22341047    -0.79300
O235        O  0.31653862  0.82538944  0.23175162    -0.80000
C236        C  0.39287750  0.75181355  0.23309503     0.95300
O237        O  0.34986993  0.76138093  0.28220972    -0.77900
O238        O  0.41067125  0.81441030  0.22861318    -0.83100
C239        C  0.37095572  0.84947788  0.28288145     0.97900
C240        C  0.40710627  0.83436982  0.21615006     1.03800
O241        O  0.35336251  0.84947441  0.26523216    -0.78800
C242        C  0.36150578  0.76922888  0.30441287     1.02100
Fe243      Fe  0.16950404  0.77279209  0.28651207     1.65800
Fe244      Fe  0.12003472  0.79681503  0.25512645     1.73200
Fe245      Fe  0.15797440  0.83241854  0.29541731     1.54400
O246        O  0.16548193  0.81847962  0.33716968    -0.82500
O247        O  0.12677677  0.82715593  0.23125971    -0.80800
O248        O  0.17087955  0.77966625  0.33139871    -0.85000
O249        O  0.20060735  0.79135990  0.27906943    -0.79900
O250        O  0.12360012  0.83953375  0.30982946    -0.81600
O251        O  0.13702224  0.77769779  0.22212713    -0.84400
C252        C  0.20716443  0.81296541  0.27846655     0.96400
C253        C  0.16967191  0.79794123  0.34776036     1.03800
O254        O  0.14920076  0.80071775  0.27899793    -1.13400
O255        O  0.10913512  0.76593183  0.27581440    -0.75800
O256        O  0.14143743  0.75018610  0.29580329    -0.79300
O257        O  0.19320452  0.83010919  0.28319051    -0.80000
C258        C  0.11944269  0.74954441  0.29019839     0.95300
O259        O  0.17007398  0.76272920  0.24193629    -0.77900
O260        O  0.09927454  0.81550114  0.28469876    -0.83100
C261        C  0.13904263  0.84599867  0.23331467     0.97900
C262        C  0.10298100  0.83197132  0.30335558     1.03800
O263        O  0.15211377  0.85038413  0.25560251    -0.78800
C264        C  0.15593752  0.76566708  0.22012602     1.02100
Fe265      Fe  0.01136249  0.43100815  0.40950029     1.65800
Fe266      Fe  0.03545347  0.38038070  0.38230792     1.73200
Fe267      Fe  0.07061719  0.41958155  0.41925104     1.54400
O268        O  0.06680829  0.45527970  0.40879436    -0.82500
O269        O  0.05149874  0.36033980  0.41522503    -0.80800
O270        O  0.02936813  0.46041505  0.39473905    -0.85000
O271        O  0.02006904  0.43657999  0.45400339    -0.79900
O272        O  0.08694870  0.41586580  0.37813394    -0.81600
O273        O  0.00318288  0.37171167  0.40169906    -0.84400
C274        C  0.03709296  0.43104363  0.47132957     0.96400
C275        C  0.05046082  0.46771707  0.39729511     1.03800
O276        O  0.03909882  0.41031095  0.40380653    -1.13400
O277        O  0.01933245  0.39729827  0.34731564    -0.75800
O278        O  0.99854754  0.42698593  0.36585207    -0.79300
O279        O  0.05698929  0.42412426  0.46154954    -0.80000
C280        C  0.00415298  0.41361791  0.34419088     0.95300
O281        O  0.99008370  0.40410987  0.42465334    -0.77900
O282        O  0.06699872  0.38513311  0.35939864    -0.83100
C283        C  0.07033535  0.36434982  0.42966324     0.97900
C284        C  0.08390772  0.40013985  0.35833190     1.03800
O285        O  0.07964732  0.38493575  0.43137792    -0.78800
C286        C  0.98836320  0.38236490  0.41811765     1.02100
Fe287      Fe  0.01074358  0.60022485  0.35385358     1.65800
Fe288      Fe  0.03504468  0.64864043  0.38670849     1.73200
Fe289      Fe  0.06850932  0.61354314  0.34222440     1.54400
O290        O  0.06908111  0.57964908  0.35962790    -0.82500
O291        O  0.05746294  0.66961428  0.36015388    -0.80800
O292        O  0.03102604  0.56954220  0.35498740    -0.85000
O293        O  0.01472913  0.60360601  0.30856414    -0.79900
O294        O  0.08843132  0.62510842  0.37888268    -0.81600
O295        O  0.00656558  0.66147320  0.36233789    -0.84400
C296        C  0.03267825  0.60184220  0.29181394     0.96400
C297        C  0.05260057  0.56429087  0.35978377     1.03800
O298        O  0.03812741  0.62068384  0.36120632    -1.13400
O299        O  0.01298498  0.63106275  0.41714347    -0.75800
O300        O  0.00464936  0.59518837  0.39874752    -0.79300
O301        O  0.05354475  0.60143354  0.30238601    -0.80000
C302        C  0.00492608  0.60997440  0.41995345     0.95300
O303        O  0.98678811  0.62836675  0.35122390    -0.77900
O304        O  0.06334747  0.63871770  0.41298077    -0.83100
C305        C  0.06812783  0.66697391  0.33530390     0.97900
C306        C  0.08414989  0.63340838  0.40473986     1.03800
O307        O  0.06983653  0.64682806  0.32307039    -0.78800
C308        C  0.98847229  0.65095489  0.35189235     1.02100
Fe309      Fe  0.00075145  0.42839277  0.15834809     1.65800
Fe310      Fe  0.97368679  0.38168321  0.12501563     1.73200
Fe311      Fe  0.94109317  0.41950525  0.16823088     1.54400
O312        O  0.95582147  0.42235039  0.21050478    -0.82500
O313        O  0.94107776  0.38720965  0.10569262    -0.80800
O314        O  0.99413825  0.43049911  0.20358676    -0.85000
O315        O  0.98426884  0.45963733  0.14918455    -0.79900
O316        O  0.93223261  0.38484151  0.17928943    -0.81600
O317        O  0.98909877  0.40081459  0.09061508    -0.84400
C318        C  0.96360087  0.46795515  0.15126655     0.96400
C319        C  0.97651213  0.42634146  0.22038118     1.03800
O320        O  0.97179105  0.40995239  0.15044672    -1.13400
O321        O  0.00685674  0.37101055  0.13906795    -0.75800
O322        O  0.02108308  0.39935798  0.16814469    -0.79300
O323        O  0.94585720  0.45547174  0.15905444    -0.80000
C324        C  0.02275838  0.37921897  0.15604313     0.95300
O325        O  0.01125435  0.42799915  0.11409264    -0.77900
O326        O  0.95853015  0.36065695  0.15797761    -0.83100
C327        C  0.92371898  0.40124993  0.10809839     0.97900
C328        C  0.94099288  0.36434123  0.17517404     1.03800
O329        O  0.92238168  0.41677731  0.12846764    -0.78800
C330        C  0.00467061  0.41720714  0.09067594     1.02100
Fe331      Fe  0.00344419  0.60564495  0.10288779     1.65800
Fe332      Fe  0.97430675  0.65251273  0.13288092     1.73200
Fe333      Fe  0.94475262  0.61207605  0.09063288     1.54400
O334        O  0.96123985  0.59830094  0.05282724    -0.82500
O335        O  0.94509869  0.64228819  0.15770362    -0.80800
O336        O  0.99938658  0.60669406  0.05757188    -0.85000
O337        O  0.98631523  0.57316747  0.10590171    -0.79900
O338        O  0.94104215  0.64400715  0.06784936    -0.81600
O339        O  0.99509087  0.63743356  0.16631748    -0.84400
C340        C  0.96585601  0.56615070  0.11382105     0.96400
C341        C  0.98171709  0.60123311  0.04169511     1.03800
O342        O  0.97418025  0.62348452  0.10904054    -1.13400
O343        O  0.00339358  0.66675433  0.11065764    -0.75800
O344        O  0.02480570  0.63530118  0.09810125    -0.79300
O345        O  0.94779027  0.57967048  0.11289203    -0.80000
C346        C  0.02181552  0.65758672  0.09944011     0.95300
O347        O  0.00973460  0.60362738  0.14806057    -0.77900
O348        O  0.95306703  0.67015102  0.10199474    -0.83100
C349        C  0.92497002  0.63539357  0.14870323     0.97900
C350        C  0.94320654  0.66523956  0.07713082     1.03800
O351        O  0.92223700  0.62472062  0.12402493    -0.78800
C352        C  0.00602457  0.61781762  0.16941064     1.02100
Fe353      Fe  0.51138605  0.10570510  0.11284006     1.65800
Fe354      Fe  0.53408155  0.15463498  0.14305514     1.73200
Fe355      Fe  0.56827600  0.11955728  0.09942057     1.54400
O356        O  0.56464748  0.08255754  0.10564689    -0.82500
O357        O  0.54511809  0.17659213  0.10903369    -0.80800
O358        O  0.53064422  0.07853714  0.13044153    -0.85000
O359        O  0.52081708  0.09651918  0.06949932    -0.79900
O360        O  0.58701641  0.12187617  0.13925140    -0.81600
O361        O  0.49905004  0.16068129  0.12928746    -0.84400
C362        C  0.53412627  0.10618491  0.05007865     0.96400
C363        C  0.54962745  0.06997875  0.12013441     1.03800
O364        O  0.53810381  0.12673747  0.11845055    -1.13400
O365        O  0.52345598  0.13380105  0.17864311    -0.75800
O366        O  0.49754667  0.11069682  0.15518277    -0.79300
O367        O  0.55216147  0.11815480  0.05781220    -0.80000
C368        C  0.50673468  0.11871799  0.17890086     0.95300
O369        O  0.49125885  0.13290780  0.09552422    -0.77900
O370        O  0.56845907  0.15296929  0.15927345    -0.83100
C371        C  0.56407084  0.17473895  0.09408208     0.97900
C372        C  0.58621206  0.13919946  0.15736157     1.03800
O373        O  0.57509561  0.15518249  0.09114584    -0.78800
C374        C  0.48658959  0.15260958  0.10783941     1.02100
Fe375      Fe  0.50881055  0.93409815  0.15720250     1.65800
Fe376      Fe  0.53480094  0.88454143  0.13288851     1.73200
Fe377      Fe  0.56495720  0.92309978  0.17620306     1.54400
O378        O  0.56521820  0.95583195  0.15344164    -0.82500
O379        O  0.55546142  0.86579965  0.16298654    -0.80800
O380        O  0.52804578  0.96493287  0.16185031    -0.85000
O381        O  0.50811601  0.93003634  0.20194053    -0.79900
O382        O  0.58760486  0.90996248  0.14308041    -0.81600
O383        O  0.50519111  0.87375173  0.15676282    -0.84400
C384        C  0.52402579  0.93340751  0.22104909     0.96400
C385        C  0.54823837  0.97057516  0.15207558     1.03800
O386        O  0.53643687  0.91376870  0.15525555    -1.13400
O387        O  0.51471698  0.90014018  0.09929981    -0.75800
O388        O  0.50896890  0.93802327  0.11171916    -0.79300
O389        O  0.54572429  0.93610731  0.21314611    -0.80000
C390        C  0.50862826  0.92135737  0.09285367     0.95300
O391        O  0.48431550  0.90689256  0.15470795    -0.77900
O392        O  0.56449567  0.89312630  0.10861637    -0.83100
C393        C  0.56494245  0.86978313  0.18819515     0.97900
C394        C  0.58465298  0.89985666  0.11791729     1.03800
O395        O  0.56632816  0.89070095  0.19871815    -0.78800
C396        C  0.48614055  0.88507692  0.16135452     1.02100
Fe397      Fe  0.50129022  0.10005480  0.36105271     1.65800
Fe398      Fe  0.47864869  0.14984711  0.38780457     1.73200
Fe399      Fe  0.44315508  0.11303541  0.34872193     1.54400
O400        O  0.45837186  0.09844716  0.31027585    -0.82500
O401        O  0.45287675  0.13705944  0.41468981    -0.80800
O402        O  0.49750464  0.10231223  0.31563024    -0.85000
O403        O  0.48060756  0.06953121  0.36317842    -0.79900
O404        O  0.43997338  0.14513731  0.32610694    -0.81600
O405        O  0.50182473  0.13502905  0.41904586    -0.84400
C406        C  0.45931607  0.06475333  0.37029817     0.96400
C407        C  0.47922692  0.09980751  0.29938338     1.03800
O408        O  0.47453037  0.12127416  0.36499236    -1.13400
O409        O  0.50606851  0.16196905  0.36197949    -0.75800
O410        O  0.52592580  0.12784276  0.35811113    -0.79300
O411        O  0.44318087  0.08042376  0.37068643    -0.80000
C412        C  0.52459831  0.15039779  0.35566094     0.95300
O413        O  0.50582085  0.09699690  0.40684004    -0.77900
O414        O  0.45512864  0.16933022  0.36027902    -0.83100
C415        C  0.43140779  0.13759942  0.40796216     0.97900
C416        C  0.44261852  0.16574820  0.33703001     1.03800
O417        O  0.42397111  0.12846050  0.38382646    -0.78800
C418        C  0.50709207  0.11367307  0.42572433     1.02100
Fe419      Fe  0.49734149  0.92971899  0.41035221     1.65800
Fe420      Fe  0.47175899  0.87837303  0.38606977     1.73200
Fe421      Fe  0.43924351  0.91817625  0.42698822     1.54400
O422        O  0.45587162  0.92808985  0.46606375    -0.82500
O423        O  0.44033611  0.88399317  0.36365501    -0.80800
O424        O  0.49446607  0.93097044  0.45610955    -0.85000
O425        O  0.47834121  0.96038744  0.40431393    -0.79900
O426        O  0.43473173  0.88502681  0.44613353    -0.81600
O427        O  0.48981552  0.89385262  0.35057213    -0.84400
C428        C  0.45684994  0.96651739  0.40333816     0.96400
C429        C  0.47725014  0.93010922  0.47431281     1.03800
O430        O  0.46932209  0.90878474  0.40760741    -1.13400
O431        O  0.50284756  0.86853605  0.40677131    -0.75800
O432        O  0.52115765  0.90259216  0.41695182    -0.79300
O433        O  0.43996156  0.95253914  0.40994540    -0.80000
C434        C  0.52040724  0.88012980  0.41653639     0.95300
O435        O  0.50238829  0.92963321  0.36476105    -0.77900
O436        O  0.45416500  0.85905183  0.41851572    -0.83100
C437        C  0.42119330  0.89493986  0.36908284     0.97900
C438        C  0.44083752  0.86389198  0.44040038     1.03800
O439        O  0.41841430  0.90859515  0.39117891    -0.78800
C440        C  0.49928595  0.91395395  0.34490615     1.02100
Fe441      Fe  0.84483069  0.77100433  0.03317044     1.65800
Fe442      Fe  0.89265568  0.79645422  0.99907760     1.73200
Fe443      Fe  0.85453965  0.83072173  0.04037572     1.54400
O444        O  0.81960297  0.82745712  0.02532232    -0.82500
O445        O  0.91331674  0.81383434  0.02959134    -0.80800
O446        O  0.81344671  0.78868290  0.02893076    -0.85000
O447        O  0.84529356  0.77724509  0.07824172    -0.79900
O448        O  0.86161676  0.84992156  0.00180535    -0.81600
O449        O  0.90379690  0.76448354  0.01696212    -0.84400
C450        C  0.84433563  0.79601094  0.09369909     0.96400
C451        C  0.80598366  0.80944664  0.02374078     1.03800
O452        O  0.86409227  0.79944754  0.02418776    -1.13400
O453        O  0.87230460  0.77989821  0.46479829    -0.75800
O454        O  0.84400764  0.75896884  0.48850268    -0.79300
O455        O  0.84590250  0.81662025  0.08204408    -0.80000
C456        C  0.85523332  0.76518388  0.46497238     0.95300
O457        O  0.87288036  0.74865273  0.03997910    -0.77900
O458        O  0.88632707  0.82806882  0.47715548    -0.83100
C459        C  0.90961205  0.82974594  0.04897292     0.97900
C460        C  0.87356025  0.84636345  0.47981120     1.03800
O461        O  0.88899050  0.83725939  0.05589805    -0.78800
C462        C  0.89422114  0.74781615  0.03178711     1.02100
Fe463      Fe  0.66488539  0.77393638  0.49193075     1.65800
Fe464      Fe  0.61827936  0.79845150  0.01785610     1.73200
Fe465      Fe  0.65521633  0.83181292  0.47675853     1.54400
O466        O  0.69175506  0.82570433  0.48271631    -0.82500
O467        O  0.59666952  0.81360191  0.48468446    -0.80800
O468        O  0.69447610  0.79101651  0.50683097    -0.85000
O469        O  0.67372948  0.78169994  0.44808863    -0.79900
O470        O  0.65398015  0.84956815  0.01893615    -0.81600
O471        O  0.60736044  0.76614927  0.50624315    -0.84400
C472        C  0.66465786  0.79539080  0.42869378     0.96400
C473        C  0.70372046  0.80998463  0.49676267     1.03800
O474        O  0.64559409  0.80218338  0.49645955    -1.13400
O475        O  0.63679809  0.78528686  0.05323291    -0.75800
O476        O  0.66257238  0.76100554  0.03139039    -0.79300
O477        O  0.65493632  0.81482674  0.43599571    -0.80000
C478        C  0.65210666  0.76893075  0.05437671     0.95300
O479        O  0.63653353  0.75483642  0.47632787    -0.77900
O480        O  0.62159400  0.83170481  0.03670381    -0.83100
C481        C  0.60019653  0.83267940  0.47008265     0.97900
C482        C  0.63680001  0.84836208  0.03710080     1.03800
O483        O  0.62051537  0.84239988  0.46794342    -0.78800
C484        C  0.61618867  0.75172136  0.48763521     1.02100
Fe485      Fe  0.84691141  0.76465700  0.28301832     1.65800
Fe486      Fe  0.89492755  0.73895018  0.25067407     1.73200
Fe487      Fe  0.85463401  0.70479382  0.29015846     1.54400
O488        O  0.84593062  0.71848325  0.33171475    -0.82500
O489        O  0.88781475  0.70863654  0.22660685    -0.80800
O490        O  0.84785939  0.75796056  0.32793435    -0.85000
O491        O  0.81471269  0.74801510  0.27950006    -0.79900
O492        O  0.88859844  0.69672461  0.30660223    -0.81600
O493        O  0.87790257  0.75830568  0.21764224    -0.84400
C494        C  0.80658124  0.72764110  0.27371986     0.96400
C495        C  0.84554608  0.73904503  0.34328210     1.03800
O496        O  0.86561995  0.73604450  0.27458694    -1.13400
O497        O  0.90724288  0.76978923  0.27079946    -0.75800
O498        O  0.87526677  0.78680252  0.28915882    -0.79300
O499        O  0.81981536  0.70934684  0.27447960    -0.80000
C500        C  0.89716013  0.78695324  0.28375564     0.95300
O501        O  0.84492918  0.77326837  0.23795755    -0.77900
O502        O  0.91445675  0.71951860  0.28114052    -0.83100
C503        C  0.87532960  0.68994838  0.22938859     0.97900
C504        C  0.90970310  0.70351248  0.30045809     1.03800
O505        O  0.86159518  0.68643301  0.25133313    -0.78800
C506        C  0.85858580  0.76976740  0.21580535     1.02100
Fe507      Fe  0.66613232  0.76500917  0.23931070     1.65800
Fe508      Fe  0.61613664  0.73857871  0.26443420     1.73200
Fe509      Fe  0.65641828  0.70569087  0.22710610     1.54400
O510        O  0.65958299  0.72104354  0.18571506    -0.82500
O511        O  0.61869452  0.70384124  0.28115682    -0.80800
O512        O  0.67156826  0.75850760  0.19391413    -0.85000
O513        O  0.69627392  0.74755875  0.25198967    -0.79900
O514        O  0.62148545  0.69605460  0.21567119    -0.81600
O515        O  0.63220574  0.75169678  0.30228632    -0.84400
C516        C  0.70518725  0.72749103  0.24638044     0.96400
C517        C  0.66576770  0.74154916  0.17656055     1.03800
O518        O  0.64653091  0.73647153  0.24393612    -1.13400
O519        O  0.60767239  0.77284490  0.25051933    -0.75800
O520        O  0.63872712  0.78686838  0.22588957    -0.79300
O521        O  0.69285187  0.71047489  0.23584627    -0.80000
C522        C  0.61738165  0.78852178  0.23408190     0.95300
O523        O  0.66209185  0.77376168  0.28429888    -0.77900
O524        O  0.59873786  0.72649562  0.22734544    -0.83100
C525        C  0.63368624  0.68694354  0.28182790     0.97900
C526        C  0.60155608  0.70668229  0.21469843     1.03800
O527        O  0.65287889  0.68772465  0.26716708    -0.78800
C528        C  0.64942590  0.76609293  0.30598083     1.02100
Fe529      Fe  0.33962696  0.27004934  0.28846965     1.65800
Fe530      Fe  0.38816970  0.29633392  0.25985376     1.73200
Fe531      Fe  0.34910364  0.32895741  0.30054829     1.54400
O532        O  0.31510083  0.32687943  0.28269015    -0.82500
O533        O  0.40695994  0.31847643  0.28799022    -0.80800
O534        O  0.30805638  0.28826292  0.28802134    -0.85000
O535        O  0.34335025  0.27364537  0.33390009    -0.79900
O536        O  0.35985426  0.34938236  0.26378103    -0.81600
O537        O  0.40040505  0.26736292  0.28482091    -0.84400
C538        C  0.34151245  0.29180430  0.35047244     0.96400
C539        C  0.30096951  0.30922297  0.28261054     1.03800
O540        O  0.35887170  0.29870262  0.28258983    -1.13400
O541        O  0.37228968  0.27473464  0.22804478    -0.75800
O542        O  0.33574195  0.26536980  0.24327939    -0.79300
O543        O  0.33838200  0.31271969  0.34022303    -0.80000
C544        C  0.35169817  0.26617891  0.22332763     0.95300
O545        O  0.36765460  0.24620826  0.28917905    -0.77900
O546        O  0.37967194  0.32512750  0.23347068    -0.83100
C547        C  0.40279171  0.33068741  0.31111036     0.97900
C548        C  0.37131491  0.34540318  0.23983311     1.03800
O549        O  0.38182767  0.33387571  0.32047870    -0.78800
C550        C  0.38993567  0.24801004  0.29144633     1.02100
Fe551      Fe  0.16242912  0.27063658  0.22933209     1.65800
Fe552      Fe  0.11447279  0.30048087  0.25630622     1.73200
Fe553      Fe  0.15792515  0.33060373  0.21741320     1.54400
O554        O  0.19070777  0.32568813  0.23796316    -0.82500
O555        O  0.09814186  0.31865445  0.22194099    -0.80800
O556        O  0.19492161  0.28624476  0.23827464    -0.85000
O557        O  0.16622758  0.27595497  0.18372005    -0.79900
O558        O  0.14770777  0.35252536  0.25236548    -0.81600
O559        O  0.10165615  0.26958863  0.23730906    -0.84400
C560        C  0.16943853  0.29430805  0.16749468     0.96400
C561        C  0.20297409  0.30704666  0.24277880     1.03800
O562        O  0.14498750  0.30066054  0.23463985    -1.13400
O563        O  0.12880579  0.28229597  0.29269459    -0.75800
O564        O  0.15977070  0.26221672  0.27453351    -0.79300
O565        O  0.16942444  0.31510966  0.17816122    -0.80000
C566        C  0.14635156  0.26834368  0.29599464     0.95300
O567        O  0.13281934  0.25079812  0.21918281    -0.77900
O568        O  0.12067817  0.33200759  0.27804515    -0.83100
C569        C  0.10471979  0.33168138  0.20006174     0.97900
C570        C  0.13231872  0.35088450  0.27289170     1.03800
O571        O  0.12627328  0.33730108  0.19559209    -0.78800
C572        C  0.11071536  0.25250137  0.22320230     1.02100
Fe573      Fe  0.34097282  0.26396471  0.03925586     1.65800
Fe574      Fe  0.39031381  0.24193666  0.01093698     1.73200
Fe575      Fe  0.35383471  0.20520169  0.04869225     1.54400
O576        O  0.34111925  0.21859763  0.08919487    -0.82500
O577        O  0.37907609  0.21909079  0.48155909    -0.80800
O578        O  0.34149096  0.25832870  0.08474766    -0.85000
O579        O  0.31016899  0.24402241  0.03384002    -0.79900
O580        O  0.38617659  0.20133690  0.06913517    -0.81600
O581        O  0.37697207  0.27014668  0.48675695    -0.84400
C582        C  0.30565257  0.22265719  0.02648960     0.96400
C583        C  0.34075587  0.23939491  0.10048345     1.03800
O584        O  0.36184602  0.23708045  0.03397627    -1.13400
O585        O  0.40290061  0.26627364  0.04058030    -0.75800
O586        O  0.36960901  0.28745564  0.04506339    -0.79300
O587        O  0.32079416  0.20607323  0.02854342    -0.80000
C588        C  0.39196153  0.28495422  0.04815507     0.95300
O589        O  0.33865647  0.26843196  0.49328510    -0.77900
O590        O  0.40959518  0.21568089  0.03356155    -0.83100
C591        C  0.37758943  0.19696734  0.48659738     0.97900
C592        C  0.40645049  0.20360871  0.05733166     1.03800
O593        O  0.36794224  0.18821450  0.01109222    -0.78800
C594        C  0.35630941  0.27264674  0.47658810     1.02100
Fe595      Fe  0.17322835  0.26090497  0.47922254     1.65800
Fe596      Fe  0.12651041  0.23868143  0.01114106     1.73200
Fe597      Fe  0.15872568  0.20291497  0.46802014     1.54400
O598        O  0.17117472  0.21829851  0.42769368    -0.82500
O599        O  0.13963274  0.21241403  0.03791475    -0.80800
O600        O  0.16799472  0.25741895  0.43410159    -0.85000
O601        O  0.20343262  0.24001033  0.47847106    -0.79900
O602        O  0.12572102  0.20072886  0.44803170    -0.81600
O603        O  0.14328719  0.26267532  0.03940388    -0.84400
C604        C  0.20844257  0.21869668  0.48574892     0.96400
C605        C  0.16904297  0.23940949  0.41716404     1.03800
O606        O  0.15214322  0.23407567  0.48556634    -1.13400
O607        O  0.11242861  0.26594742  0.48373749    -0.75800
O608        O  0.14606667  0.28614098  0.47943108    -0.79300
O609        O  0.19264923  0.20243622  0.48696515    -0.80000
C610        C  0.12362724  0.28483367  0.47726745     0.95300
O611        O  0.18070571  0.26566425  0.02442001    -0.77900
O612        O  0.10396593  0.21552941  0.48443895    -0.83100
C613        C  0.13785982  0.19103692  0.03004632     0.97900
C614        C  0.10586899  0.20336121  0.46083294     1.03800
O615        O  0.14568698  0.18425657  0.00470826    -0.78800
C616        C  0.16478016  0.26839787  0.04408707     1.02100
Fe617      Fe  0.99643566  0.10660834  0.40724699     1.65800
Fe618      Fe  0.97237061  0.15898208  0.38844664     1.73200
Fe619      Fe  0.93905058  0.11781708  0.42338647     1.54400
O620        O  0.94308782  0.08197545  0.41057276    -0.82500
O621        O  0.96119502  0.17514662  0.42697532    -0.80800
O622        O  0.97768944  0.07986526  0.38700926    -0.85000
O623        O  0.98761352  0.09274168  0.44859790    -0.79900
O624        O  0.92122869  0.12388806  0.38404916    -0.81600
O625        O  0.00719724  0.16439842  0.40250731    -0.84400
C626        C  0.97413643  0.10003672  0.46917115     0.96400
C627        C  0.95779165  0.07087852  0.39409831     1.03800
O628        O  0.96922517  0.12771214  0.40623466    -1.13400
O629        O  0.98318670  0.14374860  0.34918046    -0.75800
O630        O  0.00882534  0.11723023  0.36553612    -0.79300
O631        O  0.95561862  0.11206261  0.46373888    -0.80000
C632        C  0.99966036  0.12901553  0.34428463     0.95300
O633        O  0.01732024  0.13195602  0.42793637    -0.77900
O634        O  0.93809673  0.15861012  0.37179863    -0.83100
C635        C  0.94123705  0.17218270  0.43939010     0.97900
C636        C  0.92172677  0.14319033  0.36918988     1.03800
O637        O  0.93030142  0.15236076  0.43745401    -0.78800
C638        C  0.02110198  0.15338549  0.42010976     1.02100
Fe639      Fe  0.00136367  0.93560998  0.35410644     1.65800
Fe640      Fe  0.97587191  0.88643929  0.38401008     1.73200
Fe641      Fe  0.94384214  0.92358542  0.33964825     1.54400
O642        O  0.94280042  0.95677745  0.35942662    -0.82500
O643        O  0.95427483  0.86697118  0.35528835    -0.80800
O644        O  0.98106314  0.96671652  0.35643234    -0.85000
O645        O  0.99802307  0.93352938  0.30876337    -0.79900
O646        O  0.92272205  0.90980036  0.37407092    -0.81600
O647        O  0.00473045  0.87392290  0.36062002    -0.84400
C648        C  0.98062970  0.93644063  0.29136880     0.96400
C649        C  0.95937516  0.97210737  0.36080221     1.03800
O650        O  0.97366520  0.91537157  0.35969112    -1.13400
O651        O  0.99748788  0.90232961  0.41608014    -0.75800
O652        O  0.00709131  0.93862100  0.39933488    -0.79300
O653        O  0.95971062  0.93794098  0.30140996    -0.80000
C654        C  0.00630214  0.92297887  0.41987504     0.95300
O655        O  0.02502238  0.90703953  0.35044662    -0.77900
O656        O  0.94702461  0.89596013  0.40922321    -0.83100
C657        C  0.94512259  0.87046516  0.32960590     0.97900
C658        C  0.92640705  0.90084706  0.39985712     1.03800
O659        O  0.94346026  0.89115896  0.31826957    -0.78800
C660        C  0.02310534  0.88441119  0.35086482     1.02100
Fe661      Fe  0.00309572  0.10446643  0.15763404     1.65800
Fe662      Fe  0.02839724  0.15007659  0.12164018     1.73200
Fe663      Fe  0.06118118  0.11860050  0.17052661     1.54400
O664        O  0.04457515  0.10874075  0.21079712    -0.82500
O665        O  0.05495481  0.13381250  0.09961553    -0.80800
O666        O  0.00569262  0.10996263  0.20231546    -0.85000
O667        O  0.02334151  0.07387723  0.15976214    -0.79900
O668        O  0.06276729  0.15260526  0.18724001    -0.81600
O669        O  0.00654769  0.13198514  0.09233248    -0.84400
C670        C  0.04486363  0.06842533  0.15497690     0.96400
C671        C  0.02322020  0.11056029  0.21986452     1.03800
O672        O  0.03056378  0.12472101  0.15076286    -1.13400
O673        O  0.00003541  0.16550754  0.14185330    -0.75800
O674        O  0.97975888  0.13342122  0.15645245    -0.79300
O675        O  0.06149928  0.08380003  0.15503448    -0.80000
C676        C  0.98152170  0.15592646  0.15256680     0.95300
O677        O  0.99861195  0.09686539  0.11304437    -0.77900
O678        O  0.05082411  0.17263020  0.14686488    -0.83100
C679        C  0.07612377  0.13564276  0.10715805     0.97900
C680        C  0.06081098  0.17187630  0.17252166     1.03800
O681        O  0.08237583  0.13038605  0.13377678    -0.78800
C682        C  0.99960914  0.11056365  0.09056041     1.02100
Fe683      Fe  0.00995333  0.93093736  0.10447313     1.65800
Fe684      Fe  0.03726589  0.88112003  0.13151398     1.73200
Fe685      Fe  0.06944040  0.92398286  0.09406757     1.54400
O686        O  0.05468551  0.93581583  0.05406298    -0.82500
O687        O  0.06849467  0.88580510  0.15437984    -0.80800
O688        O  0.01568629  0.93348153  0.05920807    -0.85000
O689        O  0.02678753  0.96287800  0.11340700    -0.79900
O690        O  0.07549227  0.89203426  0.07280110    -0.81600
O691        O  0.01925863  0.89616530  0.16717683    -0.84400
C692        C  0.04769984  0.97008188  0.11857775     0.96400
C693        C  0.03399839  0.93557374  0.04304484     1.03800
O694        O  0.03897931  0.91202219  0.11035691    -1.13400
O695        O  0.00623657  0.87004892  0.11170383    -0.75800
O696        O  0.98845304  0.90250150  0.09472252    -0.79300
O697        O  0.06579493  0.95712763  0.11419968    -0.80000
C698        C  0.98927753  0.88023118  0.09848560     0.95300
O699        O  0.00149077  0.92889861  0.14916288    -0.77900
O700        O  0.05534550  0.86399569  0.09764692    -0.83100
C701        C  0.08770188  0.89701929  0.15020241     0.97900
C702        C  0.06944889  0.87044636  0.07684857     1.03800
O703        O  0.09017794  0.91284147  0.13005709    -0.78800
C704        C  0.00661573  0.91471433  0.17042141     1.02100
C705        C  0.06293917  0.03615713  0.12311983    -0.02700
C706        C  0.04991798  0.04296156  0.14868984     0.07000
C707        C  0.03854656  0.02522053  0.16600631    -0.02800
C708        C  0.03835040  0.00145183  0.15646378    -0.02800
C709        C  0.05052368  0.99467420  0.13030813     0.07100
C710        C  0.06335038  0.01207758  0.11410897    -0.03000
Br711      Br  0.07922578  0.00340778  0.07761303    -0.01500
Br712      Br  0.07841387  0.05987542  0.09862225    -0.01600
Br713      Br  0.02022931  0.97859256  0.17896810    -0.01600
Br714      Br  0.02292520  0.03338397  0.20307399    -0.01600
C715        C  0.03635692  0.91800980  0.46040192    -0.02700
C716        C  0.01571521  0.92902020  0.44969145     0.07000
C717        C  0.00361752  0.94520856  0.46794695    -0.02800
C718        C  0.01154087  0.94901817  0.99753005    -0.02800
C719        C  0.03074356  0.93631409  0.00998663     0.07100
C720        C  0.04334373  0.92093827  0.49039056    -0.03000
Br721      Br  0.07088649  0.90393319  0.50425400    -0.01500
Br722      Br  0.05540901  0.89950348  0.43343815    -0.01600
Br723      Br  0.99473089  0.97217792  0.02101245    -0.01600
Br724      Br  0.97721413  0.96269519  0.45208078    -0.01600
C725        C  0.96791578  0.92877383  0.23747229    -0.02700
C726        C  0.98531155  0.93624212  0.25844028     0.07000
C727        C  0.00886645  0.93935120  0.24831311    -0.02800
C728        C  0.01592209  0.92964170  0.22097852    -0.02800
C729        C  0.99891777  0.92130415  0.20070966     0.07100
C730        C  0.97476484  0.92226493  0.20828120    -0.03000
Br731      Br  0.95125752  0.91361875  0.17893107    -0.01500
Br732      Br  0.93473403  0.92721589  0.24752293    -0.01600
Br733      Br  0.04907656  0.92795240  0.21122515    -0.01600
Br734      Br  0.03151783  0.95806780  0.27063564    -0.01600
C735        C  0.00597712  0.09737626  0.00881441    -0.02700
C736        C  0.98190913  0.09574667  0.00006374     0.07000
C737        C  0.96433898  0.09286941  0.02233418    -0.02800
C738        C  0.97025342  0.09583968  0.05267394    -0.02800
C739        C  0.99367718  0.10142627  0.06067828     0.07100
C740        C  0.01166791  0.10005697  0.03905405    -0.03000
Br741      Br  0.04441518  0.10109310  0.05073746    -0.01500
Br742      Br  0.03082938  0.09834479  0.48015194    -0.01600
Br743      Br  0.94638154  0.09244642  0.08302532    -0.01600
Br744      Br  0.93248135  0.08384949  0.01153404    -0.01600
C745        C  0.02219603  0.10513530  0.30490011    -0.02700
C746        C  0.00783120  0.12506146  0.31275069     0.07000
C747        C  0.99994499  0.14046686  0.28950287    -0.02800
C748        C  0.00371314  0.13452829  0.25949012    -0.02800
C749        C  0.01820413  0.11508516  0.25184782     0.07100
C750        C  0.02776828  0.10071048  0.27464225    -0.03000
Br751      Br  0.04706270  0.07369195  0.26415627    -0.01500
Br752      Br  0.03453750  0.08295068  0.33434248    -0.01600
Br753      Br  0.98841416  0.15353460  0.22897210    -0.01600
Br754      Br  0.98535787  0.17108042  0.29726773    -0.01600
C755        C  0.94148710  0.02875395  0.40151738    -0.02700
C756        C  0.95248770  0.04627284  0.38312537     0.07000
C757        C  0.96071225  0.03944003  0.35456361    -0.02800
C758        C  0.96193620  0.01522952  0.34684821    -0.02800
C759        C  0.95369278  0.99753517  0.36678199     0.07100
C760        C  0.94135268  0.00457555  0.39271630    -0.03000
Br761      Br  0.92409570  0.98131226  0.41605334    -0.01500
Br762      Br  0.92773915  0.03706552  0.43954441    -0.01600
Br763      Br  0.97385549  0.00624434  0.30807314    -0.01600
Br764      Br  0.96921663  0.06325512  0.32508081    -0.01600
C765        C  0.11483009  0.13935376  0.07820681    -0.02700
C766        C  0.09200079  0.14771944  0.08532046     0.07000
C767        C  0.08378480  0.16901465  0.07169047    -0.02800
C768        C  0.09956864  0.18371706  0.05607323    -0.02800
C769        C  0.12243825  0.17539334  0.04854043     0.07100
C770        C  0.12952765  0.15260302  0.05844850    -0.03000
Br771      Br  0.15960280  0.14008219  0.04601126    -0.01500
Br772      Br  0.12537451  0.10933740  0.09413316    -0.01600
Br773      Br  0.08943774  0.21615893  0.04812503    -0.01600
Br774      Br  0.05140531  0.18027927  0.07628701    -0.01600
C775        C  0.06173892  0.20186114  0.45087432    -0.02700
C776        C  0.08428460  0.19094681  0.44921883     0.07000
C777        C  0.08563315  0.16709529  0.43930467    -0.02800
C778        C  0.06515565  0.15504878  0.42931402    -0.02800
C779        C  0.04270655  0.16592075  0.43119430     0.07100
C780        C  0.04111448  0.18906947  0.44307168    -0.03000
Br781      Br  0.01053306  0.20258258  0.45152147    -0.01500
Br782      Br  0.05862575  0.23466308  0.46306072    -0.01600
Br783      Br  0.06821779  0.12373737  0.41222896    -0.01600
Br784      Br  0.11499046  0.14966605  0.44190665    -0.01600
C785        C  0.25192644  0.22333505  0.47489218    -0.02700
C786        C  0.23380829  0.21363633  0.49322075     0.07000
C787        C  0.24090785  0.20415168  0.02033530    -0.02800
C788        C  0.26426989  0.20627391  0.03140735    -0.02800
C789        C  0.28191544  0.21742481  0.01396496     0.07100
C790        C  0.27561688  0.22361353  0.48479454    -0.03000
Br791      Br  0.30030044  0.23535487  0.45874628    -0.01500
Br792      Br  0.24450302  0.23622196  0.43583229    -0.01600
Br793      Br  0.27191000  0.19529566  0.07116086    -0.01600
Br794      Br  0.21740708  0.18752029  0.04384484    -0.01600
C795        C  0.08826503  0.20712647  0.16821981    -0.02700
C796        C  0.07157895  0.19398519  0.18511867     0.07000
C797        C  0.06633432  0.20155181  0.21448833    -0.02800
C798        C  0.07794768  0.22161819  0.22670104    -0.02800
C799        C  0.09521759  0.23402505  0.20979104     0.07100
C800        C  0.09909392  0.22755073  0.17988250    -0.03000
Br801      Br  0.11842638  0.24745896  0.15403675    -0.01500
Br802      Br  0.09969419  0.19550767  0.13094947    -0.01600
Br803      Br  0.07027549  0.23177498  0.26663310    -0.01600
Br804      Br  0.04387120  0.18411486  0.23857870    -0.01600
C805        C  0.15243156  0.22921936  0.36569260    -0.02700
C806        C  0.16664175  0.24393651  0.38422023     0.07000
C807        C  0.17506846  0.26576164  0.37229291    -0.02800
C808        C  0.16637216  0.27448277  0.34490409    -0.02800
C809        C  0.15247660  0.25989806  0.32649129     0.07100
C810        C  0.14605550  0.23697103  0.33658062    -0.03000
Br811      Br  0.12724127  0.21689708  0.31101380    -0.01500
Br812      Br  0.14077107  0.19883638  0.37967591    -0.01600
Br813      Br  0.17250100  0.30701362  0.33328866    -0.01600
Br814      Br  0.20028829  0.28289138  0.39192842    -0.01600
C815        C  0.18800759  0.27415846  0.12328838    -0.02700
C816        C  0.17226051  0.29130694  0.13463336     0.07000
C817        C  0.15785708  0.30424750  0.11435907    -0.02800
C818        C  0.15713602  0.29801319  0.08397337    -0.02800
C819        C  0.17062820  0.27879990  0.07352838     0.07100
C820        C  0.18723792  0.26795699  0.09278744    -0.03000
Br821      Br  0.20828553  0.24399339  0.07791265    -0.01500
Br822      Br  0.21104423  0.25960668  0.14944476    -0.01600
Br823      Br  0.13771929  0.31594549  0.05624190    -0.01600
Br824      Br  0.13773240  0.32959271  0.12765085    -0.01600
C825        C  0.36731035  0.28014086  0.39266217    -0.02700
C826        C  0.34527748  0.28864607  0.38284482     0.07000
C827        C  0.32787260  0.29479327  0.40382901    -0.02800
C828        C  0.33190342  0.29099982  0.43463510    -0.02800
C829        C  0.35315312  0.28004574  0.44458070     0.07100
C830        C  0.37114567  0.27524148  0.42309363    -0.03000
Br831      Br  0.40127995  0.26118874  0.43343004    -0.01500
Br832      Br  0.39297732  0.27651594  0.36422938    -0.01600
Br833      Br  0.30853960  0.30230712  0.46264106    -0.01600
Br834      Br  0.29833926  0.30808290  0.39019946    -0.01600
C835        C  0.36002624  0.23366577  0.15051161    -0.02700
C836        C  0.34071169  0.24210774  0.13342324     0.07000
C837        C  0.32339107  0.25628265  0.14725257    -0.02800
C838        C  0.32639299  0.26366932  0.17707902    -0.02800
C839        C  0.34660605  0.25646832  0.19338715     0.07100
C840        C  0.36288019  0.24071127  0.18034378    -0.03000
Br841      Br  0.38936100  0.22866491  0.20337440    -0.01500
Br842      Br  0.38388617  0.21376973  0.13318394    -0.01600
Br843      Br  0.30372863  0.28517388  0.19443524    -0.01600
Br844      Br  0.29543212  0.26535339  0.12521150    -0.01600
C845        C  0.26763492  0.32664118  0.25122798    -0.02700
C846        C  0.27527185  0.31209572  0.27533488     0.07000
C847        C  0.25849945  0.29720765  0.28986046    -0.02800
C848        C  0.23525999  0.29517606  0.27881877    -0.02800
C849        C  0.22768566  0.30931043  0.25435208     0.07100
C850        C  0.24410034  0.32493512  0.24053355    -0.03000
Br851      Br  0.23541750  0.34144016  0.20416285    -0.01500
Br852      Br  0.28936606  0.34827503  0.23162882    -0.01600
Br853      Br  0.21457147  0.27169659  0.29678600    -0.01600
Br854      Br  0.26681706  0.27991402  0.32598793    -0.01600
C855        C  0.77000370  0.74527117  0.24935552    -0.02700
C856        C  0.78078401  0.72612202  0.26529906     0.07000
C857        C  0.76628120  0.70660773  0.27416614    -0.02800
C858        C  0.74164233  0.70652230  0.26768394    -0.02800
C859        C  0.73135535  0.72528845  0.25104358     0.07100
C860        C  0.74603262  0.74410151  0.24100276    -0.03000
Br861      Br  0.73347222  0.76862002  0.21479488    -0.01500
Br862      Br  0.78676143  0.77452858  0.23957460    -0.01600
Br863      Br  0.72172682  0.68169873  0.28380624    -0.01600
Br864      Br  0.77927883  0.68103889  0.29804581    -0.01600
C865        C  0.90175687  0.83135316  0.28664262    -0.02700
C866        C  0.91095835  0.80839762  0.29256668     0.07000
C867        C  0.93277351  0.80627391  0.30769786    -0.02800
C868        C  0.94506666  0.82676545  0.31713441    -0.02800
C869        C  0.93495933  0.84963194  0.31338770     0.07100
C870        C  0.91368775  0.85182168  0.29674790    -0.03000
Br871      Br  0.89950378  0.88250609  0.28849400    -0.01500
Br872      Br  0.87219960  0.83522978  0.26522819    -0.01600
Br873      Br  0.97648201  0.82322832  0.33376636    -0.01600
Br874      Br  0.94479115  0.77532235  0.31867925    -0.01600
C875        C  0.67985199  0.75937515  0.09650492    -0.02700
C876        C  0.65698930  0.75852263  0.08386963     0.07000
C877        C  0.63775546  0.75020321  0.10094090    -0.02800
C878        C  0.64077961  0.74536802  0.13137314    -0.02800
C879        C  0.66350727  0.74639272  0.14432853     0.07100
C880        C  0.68321842  0.75227846  0.12646883    -0.03000
Br881      Br  0.71466715  0.74964176  0.14253158    -0.01500
Br882      Br  0.70613577  0.77192884  0.07378802    -0.01600
Br883      Br  0.61316952  0.73952368  0.15548362    -0.01600
Br884      Br  0.60715837  0.74518637  0.08250479    -0.01600
C885        C  0.66490677  0.80473568  0.37339867    -0.02700
C886        C  0.66445575  0.78775973  0.39685644     0.07000
C887        C  0.66178385  0.76334508  0.38964064    -0.02800
C888        C  0.65560678  0.75667567  0.36043629    -0.02800
C889        C  0.65528182  0.77368003  0.33703027     0.07100
C890        C  0.66116849  0.79757363  0.34362578    -0.03000
Br891      Br  0.66357524  0.82115494  0.31252041    -0.01500
Br892      Br  0.67214779  0.83779651  0.38138180    -0.01600
Br893      Br  0.64757776  0.72381993  0.35320868    -0.01600
Br894      Br  0.66723099  0.73812215  0.41862220    -0.01600
C895        C  0.83023192  0.77386083  0.13946205    -0.02700
C896        C  0.84279537  0.79328864  0.12672792     0.07000
C897        C  0.85703786  0.80753650  0.14547055    -0.02800
C898        C  0.86319597  0.79912688  0.17406176    -0.02800
C899        C  0.85165393  0.77905905  0.18623590     0.07100
C900        C  0.83416041  0.76724853  0.16946945    -0.03000
Br901      Br  0.81697483  0.74076556  0.18675645    -0.01500
Br902      Br  0.80694652  0.75673119  0.11632872    -0.01600
Br903      Br  0.88909115  0.81382350  0.19508148    -0.01600
Br904      Br  0.86727977  0.83900971  0.13343566    -0.01600
C905        C  0.83253899  0.76740162  0.41758458    -0.02700
C906        C  0.84845413  0.75503387  0.43609504     0.07000
C907        C  0.86023941  0.73481226  0.42531319    -0.02800
C908        C  0.85642513  0.72720985  0.39583798    -0.02800
C909        C  0.84306074  0.74158233  0.37604407     0.07100
C910        C  0.83001672  0.76091212  0.38752298    -0.03000
Br911      Br  0.80851899  0.77867330  0.36225988    -0.01500
Br912      Br  0.81564664  0.79449265  0.43271963    -0.01600
Br913      Br  0.87010457  0.69748337  0.38318047    -0.01600
Br914      Br  0.88381841  0.71920798  0.44959354    -0.01600
C915        C  0.76938205  0.79277296  0.99936637    -0.02700
C916        C  0.78045211  0.81172136  0.01503154     0.07000
C917        C  0.76641047  0.83144265  0.02370447    -0.02800
C918        C  0.74178680  0.83184698  0.01741164    -0.02800
C919        C  0.72972622  0.81232760  0.50011014     0.07100
C920        C  0.74404318  0.79482653  0.48716534    -0.03000
Br921      Br  0.73091492  0.77440909  0.45661956    -0.01500
Br922      Br  0.78333437  0.76317950  0.48372745    -0.01600
Br923      Br  0.72223622  0.85692227  0.03307293    -0.01600
Br924      Br  0.77997180  0.85703871  0.04664998    -0.01600
C925        C  0.89101587  0.88624639  0.46924284    -0.02700
C926        C  0.87841334  0.86624064  0.45890961     0.07000
C927        C  0.87667274  0.86231923  0.42802505    -0.02800
C928        C  0.89015334  0.87605392  0.40788607    -0.02800
C929        C  0.90609938  0.89336365  0.41874630     0.07100
C930        C  0.90531701  0.89944685  0.44925661    -0.03000
Br931      Br  0.92483730  0.92492920  0.46390187    -0.01500
Br932      Br  0.88897867  0.89664752  0.00880523    -0.01600
Br933      Br  0.88859876  0.86870932  0.36600034    -0.01600
Br934      Br  0.85711673  0.83685495  0.41355199    -0.01600
C935        C  0.95623028  0.85044214  0.10436317    -0.02700
C936        C  0.96992773  0.86568914  0.08597271     0.07000
C937        C  0.96511707  0.86714784  0.05511743    -0.02800
C938        C  0.94550406  0.85512065  0.04317379    -0.02800
C939        C  0.93070996  0.84128889  0.06194490     0.07100
C940        C  0.93698452  0.83779195  0.09210732    -0.03000
Br941      Br  0.92105952  0.81368709  0.11542940    -0.01500
Br942      Br  0.96339196  0.84724849  0.14636449    -0.01600
Br943      Br  0.93952779  0.85707329  0.00072163    -0.01600
Br944      Br  0.98630516  0.88444256  0.02877852    -0.01600
C945        C  0.55985929  0.85051203  0.47357385    -0.02700
C946        C  0.57967506  0.84443632  0.45596459     0.07000
C947        C  0.57979928  0.84989180  0.42511822    -0.02800
C948        C  0.56023024  0.86134813  0.41196429    -0.02800
C949        C  0.54045230  0.86711309  0.42954046     0.07100
C950        C  0.54024387  0.86165357  0.46027611    -0.03000
Br951      Br  0.51312042  0.86994940  0.48423545    -0.01500
Br952      Br  0.55996993  0.84505409  0.51629389    -0.01600
Br953      Br  0.56042112  0.86927763  0.36994464    -0.01600
Br954      Br  0.60634576  0.84094706  0.40063396    -0.01600
C955        C  0.40578097  0.19035654  0.33336971    -0.02700
C956        C  0.42915544  0.18610407  0.32384439     0.07000
C957        C  0.43949116  0.20167648  0.30272859    -0.02800
C958        C  0.42680211  0.22166029  0.29174080    -0.02800
C959        C  0.40368979  0.22674041  0.30251193     0.07100
C960        C  0.39337971  0.21073448  0.32362119    -0.03000
Br961      Br  0.36261761  0.21666227  0.34119074    -0.01500
Br962      Br  0.39016560  0.16778811  0.35942587    -0.01600
Br963      Br  0.44097011  0.24094320  0.26060479    -0.01600
Br964      Br  0.47082673  0.19492570  0.28811923    -0.01600
C965        C  0.41303036  0.18817482  0.45670716    -0.02700
C966        C  0.39004186  0.18129595  0.46576008     0.07000
C967        C  0.38046876  0.15940119  0.45619258    -0.02800
C968        C  0.39383423  0.14460626  0.43726128    -0.02800
C969        C  0.41629688  0.15221303  0.42719743     0.07100
C970        C  0.42556323  0.17436074  0.43662011    -0.03000
Br971      Br  0.45569584  0.18696931  0.42246292    -0.01500
Br972      Br  0.42938056  0.21533729  0.47374488    -0.01600
Br973      Br  0.38214323  0.11350240  0.42687824    -0.01600
Br974      Br  0.34924798  0.14971404  0.46888488    -0.01600
C975        C  0.45832899  0.02206642  0.35601192    -0.02700
C976        C  0.45357839  0.03965428  0.37748427     0.07000
C977        C  0.44628203  0.03277633  0.40650156    -0.02800
C978        C  0.44575366  0.00847662  0.41464447    -0.02800
C979        C  0.45195190  0.99108262  0.39358633     0.07100
C980        C  0.45738120  0.99786437  0.36400068    -0.03000
Br981      Br  0.46452566  0.97389057  0.33469368    -0.01500
Br982      Br  0.46679744  0.03117468  0.31568719    -0.01600
Br983      Br  0.43892517  0.99903306  0.45533975    -0.01600
Br984      Br  0.43896949  0.05650753  0.43584687    -0.01600
C985        C  0.56795327  0.82564588  0.19944662    -0.02700
C986        C  0.57612375  0.84925742  0.20434240     0.07000
C987        C  0.59721331  0.85257011  0.22103545    -0.02800
C988        C  0.61117510  0.83282205  0.22917910    -0.02800
C989        C  0.60315884  0.80940079  0.22404709     0.07100
C990        C  0.58131790  0.80598364  0.20942864    -0.03000
Br991      Br  0.57069146  0.77423796  0.20005000    -0.01500
Br992      Br  0.53812299  0.81942099  0.17959731    -0.01600
Br993      Br  0.64210661  0.83836604  0.24562879    -0.01600
Br994      Br  0.60811027  0.88392626  0.23261307    -0.01600
C995        C  0.60574372  0.90016553  0.06879642    -0.02700
C996        C  0.60533907  0.89359966  0.09927864     0.07000
C997        C  0.62153727  0.87636753  0.10985558    -0.02800
C998        C  0.63466879  0.86287232  0.08932818    -0.02800
C999        C  0.63264464  0.86758856  0.05852691     0.07100
C1000       C  0.62010471  0.88770379  0.04862758    -0.03000
Br1001     Br  0.62065497  0.89638735  0.00682300    -0.01500
Br1002     Br  0.58510770  0.92477350  0.05420234    -0.01600
Br1003     Br  0.65388857  0.83657718  0.10284216    -0.01600
Br1004     Br  0.62382977  0.86913661  0.15188921    -0.01600
C1005       C  0.50088096  0.94811988  0.01544465    -0.02700
C1006       C  0.48240734  0.93372012  0.00440610     0.07000
C1007       C  0.47101073  0.91729776  0.02373194    -0.02800
C1008       C  0.48043678  0.91263074  0.05203724    -0.02800
C1009       C  0.49946789  0.92632451  0.06275123     0.07100
C1010       C  0.50914510  0.94472099  0.04482611    -0.03000
Br1011     Br  0.53501484  0.96394713  0.05922122    -0.01500
Br1012     Br  0.51433277  0.97297639  0.99058482    -0.01600
Br1013     Br  0.46766773  0.88645999  0.07530899    -0.01600
Br1014     Br  0.45033101  0.88891372  0.51045659    -0.01600
C1015       C  0.53327921  0.93725373  0.27680549    -0.02700
C1016       C  0.51703758  0.93241308  0.25344150     0.07000
C1017       C  0.49410004  0.92364386  0.26132759    -0.02800
C1018       C  0.48972829  0.91514118  0.29033104    -0.02800
C1019       C  0.50593536  0.91969370  0.31353470     0.07100
C1020       C  0.52749125  0.93145341  0.30675330    -0.03000
Br1021     Br  0.55005914  0.93802682  0.33813611    -0.01500
Br1022     Br  0.56296286  0.95344153  0.26906386    -0.01600
Br1023     Br  0.46135357  0.89648660  0.29708588    -0.01600
Br1024     Br  0.46701785  0.92505870  0.23452928    -0.01600
C1025       C  0.46760521  0.19090598  0.09012756    -0.02700
C1026       C  0.46576089  0.16631722  0.09685068     0.07000
C1027       C  0.44412888  0.15441942  0.09136292    -0.02800
C1028       C  0.42516472  0.16648108  0.07764323    -0.02800
C1029       C  0.42689665  0.19103059  0.07110799     0.07100
C1030       C  0.44819363  0.20322381  0.07756834    -0.03000
Br1031     Br  0.45088206  0.23693891  0.06958764    -0.01500
Br1032     Br  0.49692849  0.20783063  0.09682112    -0.01600
Br1033     Br  0.39756983  0.14865287  0.06537253    -0.01600
Br1034     Br  0.43969669  0.12181796  0.10428106    -0.01600
C1035       C  0.50360637  0.10306642  0.00871354    -0.02700
C1036       C  0.52773811  0.10408867  0.01764557     0.07000
C1037       C  0.54460286  0.10255826  0.49511424    -0.02800
C1038       C  0.53803592  0.10512059  0.46477886    -0.02800
C1039       C  0.51411623  0.10827343  0.45695492     0.07100
C1040       C  0.49665195  0.10709875  0.47938358    -0.03000
Br1041     Br  0.46366887  0.10965350  0.46919622    -0.01500
Br1042     Br  0.47797817  0.09974472  0.03727708    -0.01600
Br1043     Br  0.56179161  0.10482199  0.43387050    -0.01600
Br1044     Br  0.57735680  0.09671748  0.50496888    -0.01600
C1045       C  0.51011198  0.09388442  0.22493296    -0.02700
C1046       C  0.49735165  0.11047201  0.20775483     0.07000
C1047       C  0.47575886  0.11935113  0.21828998    -0.02800
C1048       C  0.46833282  0.11400838  0.24759468    -0.02800
C1049       C  0.48274022  0.09975430  0.26649548     0.07100
C1050       C  0.50290423  0.08852864  0.25430361    -0.03000
Br1051     Br  0.52055849  0.06546001  0.27742842    -0.01500
Br1052     Br  0.53703108  0.07805190  0.20769008    -0.01600
Br1053     Br  0.43913502  0.12772803  0.26137927    -0.01600
Br1054     Br  0.45686789  0.13957672  0.19265710    -0.01600
C1055       C  0.53130460  0.00615304  0.12519405    -0.02700
C1056       C  0.55102268  0.99516714  0.13951333     0.07000
C1057       C  0.57213674  0.00863485  0.14315544    -0.02800
C1058       C  0.57233611  0.03328465  0.13630754    -0.02800
C1059       C  0.55229021  0.04397083  0.12324227     0.07100
C1060       C  0.53258586  0.02988459  0.11577202    -0.03000
Br1061     Br  0.50670173  0.04336058  0.09260701    -0.01500
Br1062     Br  0.50132634  0.99013720  0.11869273    -0.01600
Br1063     Br  0.59910897  0.05273944  0.14724450    -0.01600
Br1064     Br  0.60052360  0.99420581  0.15881800    -0.01600
C1065       C  0.94387388  0.70794262  0.06000609    -0.02700
C1066       C  0.93281005  0.68529527  0.05954961     0.07000
C1067       C  0.91031623  0.68298066  0.04577063    -0.02800
C1068       C  0.89782415  0.70342293  0.03666180    -0.02800
C1069       C  0.90816108  0.72628569  0.03953130     0.07100
C1070       C  0.93163820  0.72831183  0.05009360    -0.03000
Br1071     Br  0.94675408  0.75912246  0.05346549    -0.01500
Br1072     Br  0.97621159  0.71134407  0.07362535    -0.01600
Br1073     Br  0.86608881  0.69962083  0.02084778    -0.01600
Br1074     Br  0.89501372  0.65229709  0.04119686    -0.01600
C1075       C  0.87962512  0.67784233  0.17630159    -0.02700
C1076       C  0.87850716  0.67123094  0.20661672     0.07000
C1077       C  0.88574953  0.64808926  0.21508419    -0.02800
C1078       C  0.89952207  0.63454408  0.19512579    -0.02800
C1079       C  0.90398412  0.64315835  0.16602965     0.07100
C1080       C  0.89150913  0.66331871  0.15592801    -0.03000
Br1081     Br  0.89153802  0.67206280  0.11462913    -0.01500
Br1082     Br  0.86592766  0.70740507  0.16283057    -0.01600
Br1083     Br  0.91241879  0.60452497  0.20751105    -0.01600
Br1084     Br  0.87820929  0.63550907  0.25418619    -0.01600
C1085       C  0.94516941  0.50183758  0.12265255    -0.02700
C1086       C  0.96104641  0.49352324  0.14468243     0.07000
C1087       C  0.97777162  0.50918270  0.15711844    -0.02800
C1088       C  0.98021348  0.53228865  0.14572613    -0.02800
C1089       C  0.96362707  0.54127543  0.12476866     0.07100
C1090       C  0.94599890  0.52589446  0.11333537    -0.03000
Br1091     Br  0.92515606  0.53669673  0.08188644    -0.01500
Br1092     Br  0.92400941  0.47985257  0.10308349    -0.01600
Br1093     Br  0.00807984  0.54991827  0.15736360    -0.01600
Br1094     Br  0.99775090  0.49890289  0.19000688    -0.01600
C1095       C  0.06679072  0.37697959  0.15952429    -0.02700
C1096       C  0.04458436  0.36538322  0.16134629     0.07000
C1097       C  0.04365258  0.34089457  0.16831913    -0.02800
C1098       C  0.06442559  0.32894244  0.17690079    -0.02800
C1099       C  0.08588214  0.34169484  0.18043021     0.07100
C1100       C  0.08743299  0.36526179  0.16908627    -0.03000
Br1101     Br  0.11707329  0.38264915  0.16788026    -0.01500
Br1102     Br  0.06913949  0.40908060  0.14368522    -0.01600
Br1103     Br  0.06356122  0.29481618  0.18268175    -0.01600
Br1104     Br  0.01388111  0.32385667  0.16852341    -0.01600
C1105       C  0.96115583  0.66099708  0.30942094    -0.02700
C1106       C  0.96879252  0.66536393  0.33895359     0.07000
C1107       C  0.95792148  0.68384716  0.35526191    -0.02800
C1108       C  0.93863111  0.69655069  0.34282824    -0.02800
C1109       C  0.93004422  0.69082483  0.31416809     0.07100
C1110       C  0.94214805  0.67381249  0.29706832    -0.03000
Br1111     Br  0.93369586  0.66904169  0.25574688    -0.01500
Br1112     Br  0.97778636  0.63884348  0.28447814    -0.01600
Br1113     Br  0.92521247  0.72300988  0.36391103    -0.01600
Br1114     Br  0.96924032  0.69183326  0.39461858    -0.01600
C1115       C  0.04377717  0.61434963  0.23905945    -0.02700
C1116       C  0.02870844  0.60148217  0.25882309     0.07000
C1117       C  0.00782649  0.59100647  0.24720240    -0.02800
C1118       C  0.00054954  0.59621722  0.21780231    -0.02800
C1119       C  0.01450685  0.61099583  0.19936139     0.07100
C1120       C  0.03659655  0.61904973  0.20946024    -0.03000
Br1121     Br  0.05676828  0.63689704  0.18253199    -0.01500
Br1122     Br  0.07397517  0.62648237  0.25172781    -0.01600
Br1123     Br  0.97102902  0.58370376  0.20299065    -0.01600
Br1124     Br  0.98935828  0.56880119  0.27089597    -0.01600
C1125       C  0.97407680  0.61062231  0.45988795    -0.02700
C1126       C  0.99597687  0.60240879  0.44948382     0.07000
C1127       C  0.01008060  0.58814154  0.46820952    -0.02800
C1128       C  0.00529116  0.58722319  0.99773996    -0.02800
C1129       C  0.98529475  0.59923564  0.00899865     0.07100
C1130       C  0.96726811  0.60615556  0.48967397    -0.03000
Br1131     Br  0.93550957  0.61393326  0.50161822    -0.01500
Br1132     Br  0.95357673  0.62808893  0.43320938    -0.01600
Br1133     Br  0.02493304  0.56813082  0.02387332    -0.01600
Br1134     Br  0.03594929  0.57060534  0.45164689    -0.01600
C1135       C  0.04345331  0.41169436  0.02260957    -0.02700
C1136       C  0.03515204  0.43088144  0.00467037     0.07000
C1137       C  0.01968870  0.44776037  0.01752627    -0.02800
C1138       C  0.01064372  0.44400509  0.04652567    -0.02800
C1139       C  0.01647912  0.42315888  0.06236013     0.07100
C1140       C  0.03358708  0.40757185  0.05101576    -0.03000
Br1141     Br  0.04311132  0.38014634  0.07440972    -0.01500
Br1142     Br  0.06755948  0.39005403  0.00886521    -0.01600
Br1143     Br  0.98969360  0.46693212  0.06437110    -0.01600
Br1144     Br  0.00705907  0.47548440  0.49491610    -0.01600
C1145       C  0.99474309  0.39750171  0.29304496    -0.02700
C1146       C  0.99336382  0.41664184  0.31366522     0.07000
C1147       C  0.98322958  0.43848651  0.30364255    -0.02800
C1148       C  0.97688684  0.44151243  0.27321899    -0.02800
C1149       C  0.98109043  0.42324963  0.25263305     0.07100
C1150       C  0.99004113  0.40132443  0.26260565    -0.03000
Br1151     Br  0.99660193  0.37643656  0.23408929    -0.01500
Br1152     Br  0.00123931  0.36505873  0.30566433    -0.01600
Br1153     Br  0.96322326  0.47093251  0.25911884    -0.01600
Br1154     Br  0.97753820  0.46458356  0.33052109    -0.01600
C1155       C  0.06629988  0.50906293  0.40407239    -0.02700
C1156       C  0.05594218  0.49165358  0.38567277     0.07000
C1157       C  0.04936111  0.49756103  0.35616062    -0.02800
C1158       C  0.04936594  0.52144030  0.34686919    -0.02800
C1159       C  0.05809060  0.53915362  0.36611670     0.07100
C1160       C  0.06895869  0.53249368  0.39328510    -0.03000
Br1161     Br  0.08752174  0.55508537  0.41560384    -0.01500
Br1162     Br  0.07407923  0.50177503  0.44510743    -0.01600
Br1163     Br  0.03774856  0.52982063  0.30759456    -0.01600
Br1164     Br  0.04083634  0.47287668  0.32833044    -0.01600
C1165       C  0.11848499  0.31882314  0.44128200    -0.02700
C1166       C  0.11018257  0.30581314  0.46631407     0.07000
C1167       C  0.08822971  0.31207688  0.47938788    -0.02800
C1168       C  0.07452380  0.33059400  0.46686076    -0.02800
C1169       C  0.08336867  0.34394613  0.44251548     0.07100
C1170       C  0.10498722  0.33749487  0.42937079    -0.03000
Br1171     Br  0.11480220  0.35231844  0.39252962    -0.01500
Br1172     Br  0.14776716  0.31078072  0.42168501    -0.01600
Br1173     Br  0.04348491  0.33563988  0.97966566    -0.01600
Br1174     Br  0.07697044  0.29554962  0.01453280    -0.01600
C1175       C  0.09059317  0.39536061  0.30407087    -0.02700
C1176       C  0.10036094  0.39826774  0.33268030     0.07000
C1177       C  0.12467326  0.39355323  0.33689876    -0.02800
C1178       C  0.13686122  0.37967081  0.31565889    -0.02800
C1179       C  0.12503829  0.37224795  0.28964541     0.07100
C1180       C  0.10307070  0.38261639  0.28244323    -0.03000
Br1181     Br  0.08955621  0.37874178  0.24344173    -0.01500
Br1182     Br  0.05982529  0.40835949  0.29499307    -0.01600
Br1183     Br  0.16910709  0.37034419  0.32226872    -0.01600
Br1184     Br  0.14094097  0.40574007  0.37139446    -0.01600
C1185       C  0.13279405  0.85405716  0.17994673    -0.02700
C1186       C  0.13645943  0.86336094  0.20858676     0.07000
C1187       C  0.13069065  0.88740353  0.21402429    -0.02800
C1188       C  0.11711488  0.90019091  0.19277013    -0.02800
C1189       C  0.10851531  0.88844395  0.16723673     0.07100
C1190       C  0.11767872  0.86584825  0.16014617    -0.03000
Br1191     Br  0.10766811  0.84920524  0.12518686    -0.01500
Br1192     Br  0.14657311  0.82376848  0.16919793    -0.01600
Br1193     Br  0.10961881  0.93307098  0.19912982    -0.01600
Br1194     Br  0.13947633  0.90216794  0.25116332    -0.01600
C1195       C  0.06987915  0.86070150  0.29758600    -0.02700
C1196       C  0.08210521  0.84432951  0.31582491     0.07000
C1197       C  0.07356826  0.83931440  0.34480546    -0.02800
C1198       C  0.05392644  0.85190743  0.35622100    -0.02800
C1199       C  0.04287087  0.86977658  0.33875014     0.07100
C1200       C  0.05027386  0.87309810  0.30889608    -0.03000
Br1201     Br  0.03183040  0.89233179  0.28218872    -0.01500
Br1202     Br  0.07964487  0.86574987  0.25659168    -0.01600
Br1203     Br  0.04186189  0.84407645  0.39537089    -0.01600
Br1204     Br  0.08797883  0.81431515  0.36807174    -0.01600
C1205       C  0.08280123  0.73111568  0.31317755    -0.02700
C1206       C  0.10543624  0.72848303  0.30010661     0.07000
C1207       C  0.11448201  0.70541964  0.29555794    -0.02800
C1208       C  0.10179367  0.68527345  0.30550264    -0.02800
C1209       C  0.07991035  0.68792529  0.32081304     0.07100
C1210       C  0.07011755  0.71098333  0.32345123    -0.03000
Br1211     Br  0.03859831  0.71530655  0.33947987    -0.01500
Br1212     Br  0.06910066  0.76232530  0.31805938    -0.01600
Br1213     Br  0.11554022  0.65437821  0.29789919    -0.01600
Br1214     Br  0.14405301  0.70100935  0.27435543    -0.01600
C1215       C  0.38437078  0.88919269  0.30004473    -0.02700
C1216       C  0.37329030  0.86721294  0.30645240     0.07000
C1217       C  0.37271533  0.85854194  0.33595405    -0.02800
C1218       C  0.38705267  0.86909854  0.35764903    -0.02800
C1219       C  0.40069391  0.88931300  0.35026581     0.07100
C1220       C  0.39751390  0.90070160  0.32248607    -0.03000
Br1221     Br  0.41214961  0.93118376  0.31511047    -0.01500
Br1222     Br  0.38437701  0.90163511  0.25980964    -0.01600
Br1223     Br  0.39028490  0.85387321  0.39609407    -0.01600
Br1224     Br  0.35524783  0.82982759  0.34517688    -0.01600
C1225       C  0.46937384  0.85818833  0.20096243    -0.02700
C1226       C  0.46564774  0.87272527  0.17553736     0.07000
C1227       C  0.44224269  0.87634434  0.16526584    -0.02800
C1228       C  0.42347542  0.86264765  0.17704492    -0.02800
C1229       C  0.42730849  0.84723608  0.20179412     0.07100
C1230       C  0.45038583  0.84565695  0.21417108    -0.03000
Br1231     Br  0.45637787  0.82789549  0.25066000    -0.01500
Br1232     Br  0.49983177  0.85832655  0.22077054    -0.01600
Br1233     Br  0.39291655  0.86457639  0.15752884    -0.01600
Br1234     Br  0.43482600  0.90137130  0.13697238    -0.01600
C1235       C  0.26319492  0.82207801  0.23441221    -0.02700
C1236       C  0.28031177  0.81460641  0.25549350     0.07000
C1237       C  0.27358066  0.81141997  0.28568543    -0.02800
C1238       C  0.24956545  0.81262456  0.29382192    -0.02800
C1239       C  0.23233642  0.81789884  0.27210558     0.07100
C1240       C  0.23944878  0.82494432  0.24326621    -0.03000
Br1241     Br  0.21683343  0.83961107  0.21672854    -0.01500
Br1242     Br  0.27144158  0.82607538  0.19288888    -0.01600
Br1243     Br  0.24022667  0.80852925  0.33498597    -0.01600
Br1244     Br  0.29721723  0.80623689  0.31613857    -0.01600
C1245       C  0.06836301  0.83024868  0.05215823    -0.02700
C1246       C  0.08077078  0.85157535  0.05836284     0.07000
C1247       C  0.10511825  0.85319222  0.05063816    -0.02800
C1248       C  0.11736937  0.83281698  0.04116822    -0.02800
C1249       C  0.10545110  0.81077252  0.03845822     0.07100
C1250       C  0.08061912  0.80994502  0.04225864    -0.03000
Br1251     Br  0.06323408  0.78075499  0.03579983    -0.01500
Br1252     Br  0.03433437  0.82876591  0.05665687    -0.01600
Br1253     Br  0.15081334  0.83542979  0.03196854    -0.01600
Br1254     Br  0.12301832  0.88241996  0.05533035    -0.01600
C1255       C  0.12284735  0.65417713  0.41434683    -0.02700
C1256       C  0.10408313  0.63970783  0.42510571     0.07000
C1257       C  0.10230660  0.63564293  0.45627011    -0.02800
C1258       C  0.11701929  0.64825288  0.47614833    -0.02800
C1259       C  0.13181564  0.66651636  0.46515217     0.07100
C1260       C  0.13603055  0.66817159  0.43431954    -0.03000
Br1261     Br  0.15924163  0.69039242  0.41952883    -0.01500
Br1262     Br  0.12952597  0.65700974  0.37239513    -0.01600
Br1263     Br  0.11577259  0.64185472  0.51858463    -0.01600
Br1264     Br  0.07901092  0.61390852  0.47207004    -0.01600
C1265       C  0.06483890  0.68363541  0.04284689    -0.02700
C1266       C  0.07875203  0.69857045  0.06092766     0.07000
C1267       C  0.07078159  0.70397732  0.08988609    -0.02800
C1268       C  0.05202068  0.69077196  0.10281647    -0.02800
C1269       C  0.04029217  0.67313522  0.08597619     0.07100
C1270       C  0.04608711  0.67048577  0.05546156    -0.03000
Br1271     Br  0.02780418  0.64964741  0.03025423    -0.01500
Br1272     Br  0.06968639  0.68325015  0.00011929    -0.01600
Br1273     Br  0.04311131  0.69635168  0.14371853    -0.01600
Br1274     Br  0.08275844  0.73195674  0.10935939    -0.01600
C1275       C  0.18500414  0.77471322  0.39180080    -0.02700
C1276       C  0.17207798  0.79445643  0.38059851     0.07000
C1277       C  0.15884514  0.80847566  0.40085101    -0.02800
C1278       C  0.15533865  0.80035654  0.43031794    -0.02800
C1279       C  0.16603224  0.77917547  0.44014675     0.07100
C1280       C  0.18155540  0.76687001  0.42133081    -0.03000
Br1281     Br  0.19681169  0.73823444  0.43537176    -0.01500
Br1282     Br  0.20785891  0.75822638  0.36734813    -0.01600
Br1283     Br  0.13364780  0.81677264  0.45629591    -0.01600
Br1284     Br  0.14456362  0.83834796  0.38913956    -0.01600
C1285       C  0.14996824  0.72927937  0.14928658    -0.02700
C1286       C  0.16733333  0.74020899  0.13091984     0.07000
C1287       C  0.18396203  0.75570949  0.14419830    -0.02800
C1288       C  0.18132353  0.76249774  0.17426927    -0.02800
C1289       C  0.16150455  0.75480306  0.19085936     0.07100
C1290       C  0.14625833  0.73753128  0.17860271    -0.03000
Br1291     Br  0.12003414  0.72537276  0.20186681    -0.01500
Br1292     Br  0.13161078  0.70263960  0.13520781    -0.01600
Br1293     Br  0.20434261  0.78312084  0.19224492    -0.01600
Br1294     Br  0.21103677  0.76684085  0.12163476    -0.01600
C1295       C  0.43210537  0.80131786  0.47131112    -0.02700
C1296       C  0.40876910  0.80270855  0.48204211     0.07000
C1297       C  0.39780825  0.82502466  0.48482686    -0.02800
C1298       C  0.40851328  0.84548359  0.47257843    -0.02800
C1299       C  0.43117265  0.84386281  0.45889008     0.07100
C1300       C  0.44364281  0.82201514  0.46093269    -0.03000
Br1301     Br  0.47691058  0.82015529  0.45121288    -0.01500
Br1302     Br  0.44778977  0.77088712  0.46886049    -0.01600
Br1303     Br  0.39062819  0.87481310  0.47364918    -0.01600
Br1304     Br  0.37157748  0.82765343  0.00972754    -0.01600
C1305       C  0.33249942  0.74284226  0.37463017    -0.02700
C1306       C  0.35161229  0.74321606  0.39468203     0.07000
C1307       C  0.37436399  0.74939860  0.38439783    -0.02800
C1308       C  0.37774687  0.75701506  0.35467734    -0.02800
C1309       C  0.35830497  0.75808392  0.33462025     0.07100
C1310       C  0.33599091  0.74912297  0.34432549    -0.03000
Br1311     Br  0.31020131  0.74395653  0.31675628    -0.01500
Br1312     Br  0.30152236  0.73381759  0.38898900    -0.01600
Br1313     Br  0.40967513  0.76403671  0.34144297    -0.01600
Br1314     Br  0.40101034  0.74772624  0.41145126    -0.01600
C1315       C  0.37446889  0.78225033  0.10187650    -0.02700
C1316       C  0.35576413  0.77206451  0.08557153     0.07000
C1317       C  0.33288174  0.77084810  0.09811815    -0.02800
C1318       C  0.32890771  0.77923856  0.12731379    -0.02800
C1319       C  0.34785024  0.78872818  0.14404558     0.07100
C1320       C  0.37072229  0.78977513  0.13129675    -0.03000
Br1321     Br  0.39779009  0.79864986  0.15498749    -0.01500
Br1322     Br  0.40524880  0.78658803  0.08357832    -0.01600
Br1323     Br  0.29763019  0.77733027  0.14441386    -0.01600
Br1324     Br  0.30725015  0.75666247  0.07590075    -0.01600
C1325       C  0.24577910  0.70409770  0.02360640    -0.02700
C1326       C  0.23167768  0.72421826  0.01599536     0.07000
C1327       C  0.24239840  0.74237150  0.49829253    -0.02800
C1328       C  0.26605722  0.74050083  0.48882162    -0.02800
C1329       C  0.28017492  0.72128061  0.49821833     0.07100
C1330       C  0.27018983  0.70342156  0.01587171    -0.03000
Br1331     Br  0.29008550  0.67820286  0.03098797    -0.01500
Br1332     Br  0.23275523  0.67791965  0.04647523    -0.01600
Br1333     Br  0.27943770  0.76469400  0.46244373    -0.01600
Br1334     Br  0.22645330  0.77182535  0.48778419    -0.01600
C1335       C  0.55716352  0.70024537  0.20932730    -0.02700
C1336       C  0.58063523  0.69534942  0.19946901     0.07000
C1337       C  0.58376767  0.67806789  0.17683656    -0.02800
C1338       C  0.56416831  0.66525829  0.16564114    -0.02800
C1339       C  0.54083835  0.67094638  0.17459047     0.07100
C1340       C  0.53756538  0.68863149  0.19632240    -0.03000
Br1341     Br  0.50627509  0.69484363  0.21155431    -0.01500
Br1342     Br  0.55092310  0.72057106  0.24326036    -0.01600
Br1343     Br  0.56989933  0.63881003  0.13928059    -0.01600
Br1344     Br  0.61474224  0.67132980  0.16046012    -0.01600
C1345       C  0.43731679  0.71313086  0.19349940    -0.02700
C1346       C  0.42855877  0.68975067  0.20047171     0.07000
C1347       C  0.40913486  0.68763714  0.22067155    -0.02800
C1348       C  0.39860765  0.70812645  0.23266239    -0.02800
C1349       C  0.40673966  0.73085462  0.22441886     0.07100
C1350       C  0.42682781  0.73333818  0.20629573    -0.03000
Br1351     Br  0.43992410  0.76470835  0.19891190    -0.01500
Br1352     Br  0.46280273  0.71920215  0.16534206    -0.01600
Br1353     Br  0.37339469  0.70540312  0.26180856    -0.01600
Br1354     Br  0.39464546  0.65739019  0.23075262    -0.01600
C1355       C  0.38456661  0.65380589  0.10850087    -0.02700
C1356       C  0.40168690  0.63720046  0.09910360     0.07000
C1357       C  0.40220259  0.63012879  0.06903250    -0.02800
C1358       C  0.38890529  0.64269479  0.04763892    -0.02800
C1359       C  0.37500374  0.66210113  0.05660399     0.07100
C1360       C  0.37129246  0.66637794  0.08709835    -0.03000
Br1361     Br  0.35058609  0.69191066  0.09888216    -0.01500
Br1362     Br  0.38152874  0.66197283  0.15002293    -0.01600
Br1363     Br  0.39251425  0.63580249  0.00572111    -0.01600
Br1364     Br  0.42226918  0.60433398  0.05713716    -0.01600
C1365       C  0.41081540  0.32473722  0.04193456    -0.02700
C1366       C  0.40591679  0.30479361  0.06012328     0.07000
C1367       C  0.41493733  0.30348179  0.08936080    -0.02800
C1368       C  0.42857862  0.32233488  0.10072449    -0.02800
C1369       C  0.43358964  0.34247703  0.08251855     0.07100
C1370       C  0.42488040  0.34341336  0.05291474    -0.03000
Br1371     Br  0.43271415  0.36985350  0.02683922    -0.01500
Br1372     Br  0.39816985  0.32640243  0.00187706    -0.01600
Br1373     Br  0.43854113  0.32099033  0.14205789    -0.01600
Br1374     Br  0.40735398  0.27633111  0.11434427    -0.01600
C1375       C  0.38837861  0.37642035  0.16839519    -0.02700
C1376       C  0.40562267  0.39225648  0.17949501     0.07000
C1377       C  0.40607818  0.39739956  0.21012714    -0.02800
C1378       C  0.39193250  0.38412910  0.23015099    -0.02800
C1379       C  0.37760891  0.36533226  0.21944196     0.07100
C1380       C  0.37462837  0.36268336  0.18837034    -0.03000
Br1381     Br  0.35283004  0.33910857  0.17338867    -0.01500
Br1382     Br  0.38483258  0.37229432  0.12591110    -0.01600
Br1383     Br  0.39473914  0.39000189  0.27232599    -0.01600
Br1384     Br  0.42713508  0.42173453  0.22454191    -0.01600
C1385       C  0.44022138  0.50243215  0.14385602    -0.02700
C1386       C  0.45866893  0.49416061  0.12531095     0.07000
C1387       C  0.47671266  0.50999803  0.11657608    -0.02800
C1388       C  0.47909990  0.53201596  0.13054713    -0.02800
C1389       C  0.46043792  0.54106065  0.14848719     0.07100
C1390       C  0.44070060  0.52612756  0.15459212    -0.03000
Br1391     Br  0.41588816  0.53673767  0.18092845    -0.01500
Br1392     Br  0.41492954  0.48123923  0.15571003    -0.01600
Br1393     Br  0.50973073  0.54731087  0.12669882    -0.01600
Br1394     Br  0.49810337  0.50174852  0.08437168    -0.01600
C1395       C  0.60469573  0.68763484  0.46675273    -0.02700
C1396       C  0.58110315  0.68855022  0.45575957     0.07000
C1397       C  0.56797546  0.70986453  0.45956549    -0.02800
C1398       C  0.57901880  0.73046231  0.47095976    -0.02800
C1399       C  0.60307656  0.72984976  0.47934774     0.07100
C1400       C  0.61532134  0.70804585  0.47888113    -0.03000
Br1401     Br  0.64670402  0.70579436  0.49619970    -0.01500
Br1402     Br  0.62381935  0.65917407  0.46463249    -0.01600
Br1403     Br  0.56117855  0.75965397  0.47392156    -0.01600
Br1404     Br  0.53452220  0.71125131  0.45038901    -0.01600
C1405       C  0.59464177  0.63913424  0.31309852    -0.02700
C1406       C  0.60342901  0.63826569  0.34247570     0.07000
C1407       C  0.62669419  0.64637069  0.34818563    -0.02800
C1408       C  0.63886420  0.65952943  0.32599595    -0.02800
C1409       C  0.62720338  0.66540749  0.29918488     0.07100
C1410       C  0.60632849  0.65303492  0.29160030    -0.03000
Br1411     Br  0.59333121  0.65518755  0.25208220    -0.01500
Br1412     Br  0.56556637  0.62270717  0.30308976    -0.01600
Br1413     Br  0.67096469  0.66975393  0.33235212    -0.01600
Br1414     Br  0.64108863  0.64164989  0.38675162    -0.01600
C1415       C  0.44806130  0.66153445  0.41990484    -0.02700
C1416       C  0.46936588  0.66073727  0.43611828     0.07000
C1417       C  0.47057255  0.67063557  0.46482488    -0.02800
C1418       C  0.45095363  0.68282207  0.47646854    -0.02800
C1419       C  0.43025794  0.68577340  0.45893092     0.07100
C1420       C  0.42872234  0.67452018  0.43082447    -0.03000
Br1421     Br  0.40039788  0.67676632  0.40677579    -0.01500
Br1422     Br  0.44492759  0.64351353  0.38361897    -0.01600
Br1423     Br  0.45353243  0.69172924  0.01569743    -0.01600
Br1424     Br  0.49843336  0.66552384  0.48908687    -0.01600
C1425       C  0.51110315  0.58621553  0.02387282    -0.02700
C1426       C  0.52891667  0.60097660  0.01128648     0.07000
C1427       C  0.53817023  0.61992017  0.02841572    -0.02800
C1428       C  0.52883508  0.62486212  0.05672112    -0.02800
C1429       C  0.51166711  0.60974562  0.06953607     0.07100
C1430       C  0.50270027  0.59047774  0.05300533    -0.03000
Br1431     Br  0.47663292  0.57192445  0.06848137    -0.01500
Br1432     Br  0.50431354  0.55922624  0.50305685    -0.01600
Br1433     Br  0.53808811  0.65390148  0.07656861    -0.01600
Br1434     Br  0.56235014  0.64086538  0.01305373    -0.01600
C1435       C  0.48699211  0.63134511  0.30564211    -0.02700
C1436       C  0.49638414  0.61161635  0.32157762     0.07000
C1437       C  0.49670474  0.58900872  0.30762359    -0.02800
C1438       C  0.49028445  0.58693259  0.27725600    -0.02800
C1439       C  0.48268811  0.60706077  0.26115707     0.07100
C1440       C  0.48017758  0.62894847  0.27568022    -0.03000
Br1441     Br  0.46805104  0.65608581  0.25411144    -0.01500
Br1442     Br  0.48264145  0.66195981  0.32438581    -0.01600
Br1443     Br  0.49220893  0.55669514  0.25723884    -0.01600
Br1444     Br  0.50631859  0.56074703  0.32904829    -0.01600
C1445       C  0.42063515  0.36394406  0.34251277    -0.02700
C1446       C  0.42328284  0.34230159  0.32667001     0.07000
C1447       C  0.44632592  0.33261936  0.32372352    -0.02800
C1448       C  0.46639451  0.34568464  0.33270812    -0.02800
C1449       C  0.46387333  0.36826451  0.34617703     0.07100
C1450       C  0.44074815  0.37668516  0.35232775    -0.03000
Br1451     Br  0.43604614  0.40508501  0.37593358    -0.01500
Br1452     Br  0.38973557  0.37699436  0.35146108    -0.01600
Br1453     Br  0.49725899  0.33210797  0.32529309    -0.01600
Br1454     Br  0.45095608  0.30054875  0.30918594    -0.01600
C1455       C  0.50321127  0.44374948  0.22497341    -0.02700
C1456       C  0.51518857  0.42637135  0.20848205     0.07000
C1457       C  0.53598215  0.41603790  0.21975259    -0.02800
C1458       C  0.54390088  0.42179519  0.24858548    -0.02800
C1459       C  0.52983750  0.43644869  0.26700616     0.07100
C1460       C  0.51024910  0.44853567  0.25443699    -0.03000
Br1461     Br  0.49298232  0.47168784  0.27744863    -0.01500
Br1462     Br  0.47681553  0.46042097  0.20730379    -0.01600
Br1463     Br  0.57355518  0.40879858  0.26238121    -0.01600
Br1464     Br  0.55281135  0.39297332  0.19616260    -0.01600
C1465       C  0.48568868  0.44640842  0.46787294    -0.02700
C1466       C  0.48758530  0.42345391  0.45483732     0.07000
C1467       C  0.48250770  0.40321183  0.47313184    -0.02800
C1468       C  0.49353026  0.40534555  0.00849648    -0.02800
C1469       C  0.48291739  0.42642582  0.01809629     0.07100
C1470       C  0.48053234  0.44857294  0.49870525    -0.03000
Br1471     Br  0.47514386  0.47938150  0.51595584    -0.01500
Br1472     Br  0.48991858  0.47524273  0.44464836    -0.01600
Br1473     Br  0.50142277  0.38089523  0.03764743    -0.01600
Br1474     Br  0.47606322  0.37206552  0.45662354    -0.01600
C1475       C  0.55988679  0.51031678  0.35976012    -0.02700
C1476       C  0.55645227  0.49229395  0.38140143     0.07000
C1477       C  0.55796836  0.49768324  0.41203489    -0.02800
C1478       C  0.55996354  0.52151506  0.42098915    -0.02800
C1479       C  0.56112555  0.53971679  0.39928819     0.07100
C1480       C  0.56279286  0.53403436  0.36881778    -0.03000
Br1481     Br  0.56874248  0.55891296  0.33981595    -0.01500
Br1482     Br  0.55988497  0.50255705  0.31784518    -0.01600
Br1483     Br  0.56022780  0.52952560  0.46282305    -0.01600
Br1484     Br  0.55608078  0.47257170  0.44158300    -0.01600
C1485       C  0.58449594  0.19499030  0.05185706    -0.02700
C1486       C  0.57490690  0.19617800  0.08087420     0.07000
C1487       C  0.57935715  0.21632114  0.09883261    -0.02800
C1488       C  0.59398453  0.23472902  0.08797562    -0.02800
C1489       C  0.60445587  0.23280698  0.05958359     0.07100
C1490       C  0.60003537  0.21278359  0.04177823    -0.03000
Br1491     Br  0.61643497  0.20883928  0.00445034    -0.01500
Br1492     Br  0.57585140  0.16929199  0.02549283    -0.01600
Br1493     Br  0.60160127  0.26155088  0.11300909    -0.01600
Br1494     Br  0.56729132  0.21811650  0.13918610    -0.01600
C1495       C  0.59515951  0.35065556  0.46722905    -0.02700
C1496       C  0.61831445  0.35824761  0.47474458     0.07000
C1497       C  0.62710827  0.37996868  0.46321046    -0.02800
C1498       C  0.61316147  0.39354232  0.44323619    -0.02800
C1499       C  0.59045307  0.38539430  0.43503858     0.07100
C1500       C  0.58153024  0.36383231  0.44718010    -0.03000
Br1501     Br  0.55124075  0.35041157  0.43485268    -0.01500
Br1502     Br  0.58090973  0.32223772  0.48444550    -0.01600
Br1503     Br  0.62497925  0.42323711  0.42729806    -0.01600
Br1504     Br  0.65843085  0.39062405  0.47372410    -0.01600
C1505       C  0.57063318  0.37974447  0.10110930    -0.02700
C1506       C  0.54810713  0.36861363  0.10229943     0.07000
C1507       C  0.54603398  0.34469482  0.09291567    -0.02800
C1508       C  0.56586747  0.33257308  0.08129187    -0.02800
C1509       C  0.58811228  0.34409539  0.07884059     0.07100
C1510       C  0.59034090  0.36775686  0.08903096    -0.03000
Br1511     Br  0.61988276  0.38484811  0.08419141    -0.01500
Br1512     Br  0.57503968  0.41132650  0.11706733    -0.01600
Br1513     Br  0.56229298  0.29993380  0.06886108    -0.01600
Br1514     Br  0.51581536  0.32848913  0.09436283    -0.01600
C1515       C  0.75995217  0.32430657  0.47986370    -0.02700
C1516       C  0.77811196  0.31903033  0.50045856     0.07000
C1517       C  0.77402160  0.31501951  0.03017528    -0.02800
C1518       C  0.75031999  0.31584645  0.03977535    -0.02800
C1519       C  0.73186668  0.31710160  0.01871561     0.07100
C1520       C  0.73615962  0.32492472  0.48954718    -0.03000
Br1521     Br  0.71097629  0.32941813  0.46095858    -0.01500
Br1522     Br  0.76758403  0.32929756  0.43832190    -0.01600
Br1523     Br  0.74290607  0.31522021  0.08190037    -0.01600
Br1524     Br  0.79902625  0.31180931  0.05928395    -0.01600
C1525       C  0.92693820  0.23585576  0.46410338     0.06900
C1526       C  0.90696265  0.23221264  0.48246501     0.07000
C1527       C  0.90061411  0.20872899  0.49038526    -0.02800
C1528       C  0.91226836  0.18909237  0.47752536    -0.02800
C1529       C  0.93012541  0.19275048  0.45552196     0.07100
C1530       C  0.93699337  0.21661545  0.44867421    -0.03000
Br1531     Br  0.95748452  0.22451416  0.41531111    -0.01500
Br1532     Br  0.94173320  0.26688661  0.46090908    -0.01600
Br1533     Br  0.90310806  0.15751814  0.49079835    -0.01600
Br1534     Br  0.87775171  0.20355171  0.52171296    -0.01600
C1535       C  0.86769127  0.37602925  0.07564735    -0.02700
C1536       C  0.87461966  0.37459882  0.04559402     0.07000
C1537       C  0.89310847  0.38938265  0.03530988    -0.02800
C1538       C  0.90811771  0.40069330  0.05594777    -0.02800
C1539       C  0.90401801  0.39783177  0.08684682     0.07100
C1540       C  0.88287405  0.38676619  0.09663583    -0.03000
Br1541     Br  0.87643840  0.38306091  0.13872790    -0.01500
Br1542     Br  0.83674879  0.36483990  0.08693231    -0.01600
Br1543     Br  0.93551916  0.41810356  0.04210594    -0.01600
Br1544     Br  0.89861002  0.39268513  0.99298122    -0.01600
C1545       C  0.92946119  0.35038951  0.42180340    -0.02700
C1546       C  0.92731398  0.34598096  0.45291361     0.07000
C1547       C  0.94549836  0.35396440  0.47245619    -0.02800
C1548       C  0.96556387  0.36562855  0.46088994    -0.02800
C1549       C  0.96789550  0.36916205  0.42991403     0.07100
C1550       C  0.94978189  0.36185084  0.41043537    -0.03000
Br1551     Br  0.95219175  0.36914099  0.36825130    -0.01500
Br1552     Br  0.90495871  0.34107136  0.39415365    -0.01600
Br1553     Br  0.98981051  0.37731095  0.48762502    -0.01600
Br1554     Br  0.94277433  0.35091946  0.51554890    -0.01600
C1555       C  0.68220156  0.26564109  0.17864911    -0.02700
C1556       C  0.66489291  0.27770310  0.19547209     0.07000
C1557       C  0.65401868  0.29808408  0.18339926    -0.02800
C1558       C  0.65960502  0.30585828  0.15425635    -0.02800
C1559       C  0.67457753  0.29206104  0.13593292     0.07100
C1560       C  0.68668379  0.27251978  0.14877999    -0.03000
Br1561     Br  0.70978286  0.25535744  0.12557339    -0.01500
Br1562     Br  0.69879011  0.23876876  0.19564572    -0.01600
Br1563     Br  0.64618595  0.33529056  0.14010081    -0.01600
Br1564     Br  0.63098003  0.31516569  0.20677703    -0.01600
C1565       C  0.68019527  0.24161122  0.40540689    -0.02700
C1566       C  0.66144192  0.24578891  0.38542586     0.07000
C1567       C  0.64005743  0.25514907  0.39609325    -0.02800
C1568       C  0.63793763  0.26225666  0.42604861    -0.02800
C1569       C  0.65682128  0.25833624  0.44675571     0.07100
C1570       C  0.67776805  0.24719030  0.43606523    -0.03000
Br1571     Br  0.70333757  0.23862862  0.46267446    -0.01500
Br1572     Br  0.70962038  0.22922554  0.39020716    -0.01600
Br1573     Br  0.60919597  0.27895466  0.43641047    -0.01600
Br1574     Br  0.61318531  0.25787563  0.36925245    -0.01600
C1575       C  0.63361971  0.17862421  0.18607136    -0.02700
C1576       C  0.63273355  0.17316524  0.21690155     0.07000
C1577       C  0.62156117  0.15182403  0.22639785    -0.02800
C1578       C  0.60819636  0.13841778  0.20583666    -0.02800
C1579       C  0.60700905  0.14553116  0.17568632     0.07100
C1580       C  0.62161249  0.16422058  0.16547219    -0.03000
Br1581     Br  0.62371417  0.17121187  0.12331024    -0.01500
Br1582     Br  0.64903354  0.20720322  0.17203159    -0.01600
Br1583     Br  0.58987464  0.11151518  0.21920260    -0.01600
Br1584     Br  0.62143079  0.14262445  0.26809410    -0.01600
C1585       C  0.54797132  0.16681823  0.31340154    -0.02700
C1586       C  0.54529234  0.16353327  0.34433969     0.07000
C1587       C  0.56236405  0.17259204  0.36418442    -0.02800
C1588       C  0.58234219  0.18484500  0.35301464    -0.02800
C1589       C  0.58449894  0.18931028  0.32195141     0.07100
C1590       C  0.56725796  0.17993765  0.30216666    -0.03000
Br1591     Br  0.57034924  0.18353760  0.25928744    -0.01500
Br1592     Br  0.52516362  0.15294453  0.28639386    -0.01600
Br1593     Br  0.60642173  0.19529612  0.38059763    -0.01600
Br1594     Br  0.55808667  0.16845149  0.40671543    -0.01600
C1595       C  0.61315069  0.32062890  0.33033991    -0.02700
C1596       C  0.60492748  0.30872572  0.30455349     0.07000
C1597       C  0.58418282  0.31705038  0.29019379    -0.02800
C1598       C  0.57200200  0.33701536  0.30146866    -0.02800
C1599       C  0.57928754  0.34760596  0.32844166     0.07100
C1600       C  0.59996827  0.33931637  0.34264767    -0.03000
Br1601     Br  0.61124792  0.35421077  0.37850383    -0.01500
Br1602     Br  0.64258146  0.31186907  0.34953630    -0.01600
Br1603     Br  0.54584051  0.35032111  0.27943657    -0.01600
Br1604     Br  0.57293963  0.30200029  0.25422966    -0.01600
C1605       C  0.83661776  0.24332080  0.09303922    -0.02700
C1606       C  0.84656503  0.26606056  0.08716421     0.07000
C1607       C  0.84873700  0.28249683  0.11068703    -0.02800
C1608       C  0.84080847  0.27644217  0.13933985    -0.02800
C1609       C  0.83523686  0.25247555  0.14611989     0.07100
C1610       C  0.83202989  0.23620585  0.12267033    -0.03000
Br1611     Br  0.82041341  0.20443322  0.13098202    -0.01500
Br1612     Br  0.83035601  0.22102350  0.06142120    -0.01600
Br1613     Br  0.83748142  0.30169457  0.16823627    -0.01600
Br1614     Br  0.86371572  0.31309426  0.10506284    -0.01600
C1615       C  0.87134452  0.28019863  0.38485867    -0.02700
C1616       C  0.84800148  0.28462882  0.39397651     0.07000
C1617       C  0.82905994  0.28034834  0.37459262    -0.02800
C1618       C  0.83361370  0.27266939  0.34536930    -0.02800
C1619       C  0.85728201  0.27015040  0.33527469     0.07100
C1620       C  0.87617442  0.27374347  0.35535499    -0.03000
Br1621     Br  0.90879118  0.27067408  0.34285538    -0.01500
Br1622     Br  0.89653563  0.28132634  0.41366325    -0.01600
Br1623     Br  0.80712876  0.26370789  0.32076622    -0.01600
Br1624     Br  0.79701452  0.28389030  0.38872096    -0.01600
C1625       C  0.76986580  0.20599838  0.27302531    -0.02700
C1626       C  0.77906980  0.22451051  0.25508156     0.07000
C1627       C  0.76456679  0.24366615  0.24665876    -0.02800
C1628       C  0.74161419  0.24549649  0.25805922    -0.02800
C1629       C  0.73172118  0.22663980  0.27533326     0.07100
C1630       C  0.74607439  0.20684296  0.28279995    -0.03000
Br1631     Br  0.73438459  0.18245759  0.30958932    -0.01500
Br1632     Br  0.79035989  0.18048540  0.28572048    -0.01600
Br1633     Br  0.72529844  0.27516465  0.25093893    -0.01600
Br1634     Br  0.77627187  0.26774457  0.21904654    -0.01600
C1635       C  0.87220913  0.17524326  0.33046860    -0.02700
C1636       C  0.87739951  0.16937184  0.30065852     0.07000
C1637       C  0.89354159  0.15108609  0.29437884    -0.02800
C1638       C  0.90633415  0.14038144  0.31772498    -0.02800
C1639       C  0.90319998  0.14827505  0.34719887     0.07100
C1640       C  0.88554159  0.16509871  0.35379897    -0.03000
Br1641     Br  0.88180264  0.17650911  0.39411925    -0.01500
Br1642     Br  0.84908914  0.19956232  0.33872797    -0.01600
Br1643     Br  0.93075266  0.11759492  0.30895507    -0.01600
Br1644     Br  0.90060358  0.14337469  0.25339227    -0.01600
C1645       C  0.91891797  0.17768141  0.16896979    -0.02700
C1646       C  0.92350895  0.19822037  0.18633724     0.07000
C1647       C  0.94695648  0.20752139  0.18645628    -0.02800
C1648       C  0.96577405  0.19425170  0.17432420    -0.02800
C1649       C  0.96145356  0.17157079  0.16163319     0.07100
C1650       C  0.93776757  0.16396601  0.15795589    -0.03000
Br1651     Br  0.93047360  0.13488693  0.13717235    -0.01500
Br1652     Br  0.88700102  0.16908540  0.15716609    -0.01600
Br1653     Br  0.99759870  0.20713478  0.17742491    -0.01600
Br1654     Br  0.95422551  0.23891724  0.20178715    -0.01600
C1655       C  0.91001386  0.30505318  0.18607020    -0.02700
C1656       C  0.90378916  0.30601401  0.21648288     0.07000
C1657       C  0.91079170  0.32552034  0.23392662    -0.02800
C1658       C  0.92356985  0.34442138  0.22074069    -0.02800
C1659       C  0.92935941  0.34379637  0.18996001     0.07100
C1660       C  0.92241677  0.32402883  0.17267175    -0.03000
Br1661     Br  0.92803512  0.32354918  0.13004359    -0.01500
Br1662     Br  0.90206866  0.27727295  0.16296421    -0.01600
Br1663     Br  0.93312888  0.37089196  0.24523764    -0.01600
Br1664     Br  0.90224353  0.32654597  0.27570904    -0.01600
Fe1665     Fe  0.84289050  0.26192724  0.74023898     1.65800
Fe1666     Fe  0.89345336  0.23483195  0.75788505     1.73200
Fe1667     Fe  0.85172780  0.20477992  0.72052412     1.54400
O1668       O  0.81605510  0.20978137  0.73119449    -0.82500
O1669       O  0.90862094  0.22622271  0.71778688    -0.80800
O1670       O  0.81541091  0.24312291  0.75760949    -0.85000
O1671       O  0.83074800  0.25634906  0.69739844    -0.79900
O1672       O  0.85588038  0.18555289  0.75969692    -0.81600
O1673       O  0.90056907  0.27022007  0.74809201    -0.84400
C1674       C  0.83765120  0.24309885  0.67637563     0.96400
C1675       C  0.80541906  0.22471766  0.74756896     1.03800
O1676       O  0.86247577  0.23386723  0.73973335    -1.13400
O1677       O  0.87857105  0.24340695  0.79827022    -0.75800
O1678       O  0.85213937  0.27047301  0.78357454    -0.79300
O1679       O  0.84777854  0.22326217  0.68105046    -0.80000
C1680       C  0.86347564  0.25946370  0.80389555     0.95300
O1681       O  0.86939596  0.28278327  0.72241508    -0.77900
O1682       O  0.89179764  0.19960708  0.77060700    -0.83100
C1683       C  0.90506927  0.20724595  0.70342866     0.97900
C1684       C  0.87515733  0.18466426  0.77424262     1.03800
O1685       O  0.88585138  0.19557776  0.70665681    -0.78800
C1686       C  0.89076305  0.28485233  0.73044124     1.02100
Fe1687     Fe  0.66891868  0.26325794  0.79256750     1.65800
Fe1688     Fe  0.62051649  0.23867655  0.76048073     1.73200
Fe1689     Fe  0.65957300  0.20357191  0.79921826     1.54400
O1690       O  0.69368597  0.20805774  0.78251508    -0.82500
O1691       O  0.60111887  0.21749266  0.78926294    -0.80800
O1692       O  0.70062093  0.24573393  0.79293205    -0.85000
O1693       O  0.66545279  0.25737787  0.83752147    -0.79900
O1694       O  0.65132114  0.18555203  0.76017357    -0.81600
O1695       O  0.60854496  0.26763610  0.78433260    -0.84400
C1696       C  0.66669937  0.23834362  0.85287647     0.96400
C1697       C  0.70754163  0.22581252  0.78377371     1.03800
O1698       O  0.64947420  0.23497702  0.78409544    -1.13400
O1699       O  0.63772644  0.25978220  0.72846359    -0.75800
O1700       O  0.67298578  0.26997707  0.74738645    -0.79300
O1701       O  0.66790994  0.21765892  0.84133906    -0.80000
C1702       C  0.65846937  0.26861428  0.72576434     0.95300
O1703       O  0.64143294  0.28710866  0.79493488    -0.77900
O1704       O  0.62741328  0.20959511  0.73434068    -0.83100
C1705       C  0.60537403  0.20101454  0.80810185     0.97900
C1706       C  0.63806771  0.18995297  0.73786912     1.03800
O1707       O  0.62625764  0.19499383  0.81553373    -0.78800
C1708       C  0.61913655  0.28577476  0.79427117     1.02100
Fe1709     Fe  0.84279202  0.27184103  0.98974541     1.65800
Fe1710     Fe  0.88830584  0.30272985  0.51827299     1.73200
Fe1711     Fe  0.85332502  0.33027997  0.96951222     1.54400
O1712       O  0.84985504  0.31061719  0.93073458    -0.82500
O1713       O  0.87957368  0.33491169  0.53778738    -0.80800
O1714       O  0.84266279  0.27285502  0.94412640    -0.85000
O1715       O  0.81116044  0.28962855  0.99310465    -0.79900
O1716       O  0.88796538  0.33803109  0.95645170    -0.81600
O1717       O  0.87131499  0.28484628  0.55230649    -0.84400
C1718       C  0.80407383  0.31081634  0.98979022     0.96400
C1719       C  0.84665737  0.28878105  0.92466895     1.03800
O1720       O  0.86211905  0.30129161  0.99266516    -1.13400
O1721       O  0.90313791  0.26928967  0.00356165    -0.75800
O1722       O  0.87188384  0.24965896  0.98636849    -0.79300
O1723       O  0.81744135  0.32749991  0.98040279    -0.80000
C1724       C  0.89389343  0.25107969  0.99180336     0.95300
O1725       O  0.83788329  0.26958089  0.53456142    -0.77900
O1726       O  0.91141113  0.31751792  0.98697119    -0.83100
C1727       C  0.86891522  0.35382228  0.52970146     0.97900
C1728       C  0.90843457  0.33219688  0.96574549     1.03800
O1729       O  0.85688784  0.35539737  0.50581225    -0.78800
C1730       C  0.85185349  0.27391007  0.55588214     1.02100
Fe1731     Fe  0.67165598  0.27358592  0.54149144     1.65800
Fe1732     Fe  0.62136160  0.29591464  0.51755957     1.73200
Fe1733     Fe  0.65911630  0.33161341  0.55351714     1.54400
O1734       O  0.67520995  0.31668939  0.59176138    -0.82500
O1735       O  0.63871807  0.32232387  0.98574742    -0.80800
O1736       O  0.67122841  0.27733008  0.58721185    -0.85000
O1737       O  0.70191297  0.29417745  0.53765432    -0.79900
O1738       O  0.62818422  0.33380278  0.57802492    -0.81600
O1739       O  0.63679245  0.27307390  0.98279636    -0.84400
C1740       C  0.70622645  0.31542889  0.52940036     0.96400
C1741       C  0.67415614  0.29576475  0.60317179     1.03800
O1742       O  0.65068580  0.30038568  0.53823505    -1.13400
O1743       O  0.61077599  0.27077782  0.54746564    -0.75800
O1744       O  0.64379970  0.24918405  0.54621818    -0.79300
O1745       O  0.69066737  0.33170713  0.52970651    -0.80000
C1746       C  0.62182572  0.25155747  0.55194754     0.95300
O1747       O  0.67278328  0.26319687  0.99674539    -0.77900
O1748       O  0.60368556  0.32117049  0.54303851    -0.83100
C1749       C  0.63632112  0.34360881  0.99301883     0.97900
C1750       C  0.60751032  0.33213057  0.56721947     1.03800
O1751       O  0.64198900  0.34982412  0.51809040    -0.78800
C1752       C  0.65633156  0.26313496  0.97742178     1.02100
Fe1753     Fe  0.50769623  0.43229226  0.86084458     1.65800
Fe1754     Fe  0.52817151  0.38162572  0.88811238     1.73200
Fe1755     Fe  0.56545379  0.41803681  0.85106599     1.54400
O1756       O  0.55192755  0.43306536  0.81153460    -0.82500
O1757       O  0.55217457  0.39345101  0.91861880    -0.80800
O1758       O  0.51247926  0.43166017  0.81537355    -0.85000
O1759       O  0.52872897  0.46254094  0.86489921    -0.79900
O1760       O  0.56826514  0.38617135  0.82888817    -0.81600
O1761       O  0.50164171  0.39557709  0.91467338    -0.84400
C1762       C  0.55001570  0.46619862  0.87291765     0.96400
C1763       C  0.53128667  0.43352813  0.79985535     1.03800
O1764       O  0.53372204  0.41044883  0.86559797    -1.13400
O1765       O  0.50277541  0.37039417  0.85918968    -0.75800
O1766       O  0.48293947  0.40439677  0.85586917    -0.79300
O1767       O  0.56576215  0.45025499  0.87238660    -0.80000
C1768       C  0.48397952  0.38174826  0.85319135     0.95300
O1769       O  0.50302208  0.43401282  0.90688677    -0.77900
O1770       O  0.55388983  0.36237432  0.86439459    -0.83100
C1771       C  0.57408161  0.39492745  0.91353502     0.97900
C1772       C  0.56624821  0.36579995  0.84092810     1.03800
O1773       O  0.58217485  0.40274138  0.88866262    -0.78800
C1774       C  0.49944778  0.41649866  0.92432951     1.02100
Fe1775     Fe  0.51413990  0.59844694  0.91518338     1.65800
Fe1776     Fe  0.53874764  0.64969145  0.88883239     1.73200
Fe1777     Fe  0.57248053  0.61137283  0.93035386     1.54400
O1778       O  0.55598933  0.60165138  0.97033167    -0.82500
O1779       O  0.56891665  0.64358219  0.86455866    -0.80800
O1780       O  0.51733017  0.59851371  0.96083749    -0.85000
O1781       O  0.53380976  0.56795891  0.91122728    -0.79900
O1782       O  0.57730325  0.64484751  0.94819004    -0.81600
O1783       O  0.51981905  0.63368006  0.85517135    -0.84400
C1784       C  0.55542094  0.56218702  0.91013968     0.96400
C1785       C  0.53456436  0.59973947  0.97891874     1.03800
O1786       O  0.54195436  0.61975024  0.91124563    -1.13400
O1787       O  0.50825763  0.65944093  0.91153948    -0.75800
O1788       O  0.48960556  0.62519986  0.92026337    -0.79300
O1789       O  0.57214496  0.57678399  0.91471556    -0.80000
C1790       C  0.49036902  0.64767957  0.92056033     0.95300
O1791       O  0.50817292  0.59750979  0.86962948    -0.77900
O1792       O  0.55797258  0.66971191  0.91866008    -0.83100
C1793       C  0.58871647  0.63391836  0.87012822     0.97900
C1794       C  0.57169799  0.66581239  0.94051093     1.03800
O1795       O  0.59259239  0.62121924  0.89326836    -0.78800
C1796       C  0.51001288  0.61380868  0.84993861     1.02100
Fe1797     Fe  0.50103610  0.43046240  0.61107052     1.65800
Fe1798     Fe  0.47587604  0.38198919  0.64289814     1.73200
Fe1799     Fe  0.44167425  0.42010064  0.60246208     1.54400
O1800       O  0.44606569  0.45640716  0.60967539    -0.82500
O1801       O  0.46244338  0.36183144  0.60853744    -0.80800
O1802       O  0.48375380  0.46056791  0.62300055    -0.85000
O1803       O  0.49300533  0.43515643  0.56601787    -0.79900
O1804       O  0.42430926  0.41714912  0.64312028    -0.81600
O1805       O  0.51006073  0.37355446  0.62912287    -0.84400
C1806       C  0.47549377  0.42956814  0.54962159     0.96400
C1807       C  0.46324954  0.46893072  0.61897348     1.03800
O1808       O  0.47284792  0.41099882  0.61884352    -1.13400
O1809       O  0.48924680  0.40105107  0.67830135    -0.75800
O1810       O  0.51231650  0.42802485  0.65523203    -0.79300
O1811       O  0.45561337  0.42290455  0.56001150    -0.80000
C1812       C  0.50473084  0.41753294  0.67867725     0.95300
O1813       O  0.52184800  0.40234184  0.59846828    -0.77900
O1814       O  0.44217355  0.38478094  0.66095993    -0.83100
C1815       C  0.44281872  0.36492391  0.59517959     0.97900
C1816       C  0.42491119  0.39918636  0.66047026     1.03800
O1817       O  0.43283968  0.38511578  0.59345722    -0.78800
C1818       C  0.52480458  0.38215897  0.61054679     1.02100
Fe1819     Fe  0.50252276  0.60585903  0.66524712     1.65800
Fe1820     Fe  0.47464769  0.65299153  0.63340305     1.73200
Fe1821     Fe  0.44379201  0.61380389  0.67713748     1.54400
O1822       O  0.44723300  0.57994425  0.65905367    -0.82500
O1823       O  0.45282896  0.67175136  0.66115666    -0.80800
O1824       O  0.48544135  0.57359944  0.66609161    -0.85000
O1825       O  0.49922680  0.60860814  0.71054335    -0.79900
O1826       O  0.42269488  0.62277036  0.64091187    -0.81600
O1827       O  0.50391257  0.66694658  0.65625951    -0.84400
C1828       C  0.48128746  0.60585192  0.72719605     0.96400
C1829       C  0.46517758  0.56637695  0.65844896     1.03800
O1830       O  0.47356154  0.62436665  0.65857960    -1.13400
O1831       O  0.49571745  0.63730059  0.60168039    -0.75800
O1832       O  0.50764801  0.60222877  0.61979032    -0.79300
O1833       O  0.46027037  0.60417526  0.71716578    -0.80000
C1834       C  0.50549178  0.61719371  0.59855844     0.95300
O1835       O  0.52490318  0.63470185  0.66688516    -0.77900
O1836       O  0.44555290  0.64263766  0.60858761    -0.83100
C1837       C  0.44082847  0.66800089  0.68460736     0.97900
C1838       C  0.42583308  0.63343705  0.61613987     1.03800
O1839       O  0.43793273  0.64712865  0.69524392    -0.78800
C1840       C  0.52266782  0.65704916  0.66602061     1.02100
Fe1841     Fe  0.34729407  0.75982655  0.98883702     1.65800
Fe1842     Fe  0.39348944  0.73138842  0.51905960     1.73200
Fe1843     Fe  0.35486129  0.70035440  0.97702964     1.54400
O1844       O  0.31849559  0.70658691  0.98329329    -0.82500
O1845       O  0.41420191  0.71708564  0.98514934    -0.80800
O1846       O  0.31584613  0.74374527  0.99938221    -0.85000
O1847       O  0.34341162  0.75350495  0.94344470    -0.79900
O1848       O  0.35480762  0.68208662  0.51693435    -0.81600
O1849       O  0.40539734  0.76500529  0.00584716    -0.84400
C1850       C  0.34916651  0.73657436  0.92623552     0.96400
C1851       C  0.30651993  0.72382601  0.99360988     1.03800
O1852       O  0.36538216  0.73055166  0.99508842    -1.13400
O1853       O  0.37542081  0.74420926  0.55518435    -0.75800
O1854       O  0.34964196  0.76927726  0.53394854    -0.79300
O1855       O  0.35452683  0.71589109  0.93541005    -0.80000
C1856       C  0.36024185  0.76074880  0.55669902     0.95300
O1857       O  0.37647188  0.77985572  0.97794092    -0.77900
O1858       O  0.38831674  0.69742008  0.53514074    -0.83100
C1859       C  0.41028830  0.69806864  0.97082962     0.97900
C1860       C  0.37251100  0.68135560  0.53441776     1.03800
O1861       O  0.38956353  0.68923288  0.96837544    -0.78800
C1862       C  0.39701256  0.78113620  0.98906291     1.02100
Fe1863     Fe  0.16707735  0.76393900  0.53719504     1.65800
Fe1864     Fe  0.12138927  0.73868307  0.49985472     1.73200
Fe1865     Fe  0.15709035  0.70414129  0.54402642     1.54400
O1866       O  0.19296867  0.70817352  0.53130567    -0.82500
O1867       O  0.09882081  0.72479399  0.53139719    -0.80800
O1868       O  0.19854991  0.74721532  0.52907070    -0.85000
O1869       O  0.16888349  0.75603722  0.58216980    -0.79900
O1870       O  0.15229545  0.68496158  0.50527034    -0.81600
O1871       O  0.11198252  0.77278884  0.51285015    -0.84400
C1872       C  0.16710061  0.73734809  0.59801619     0.96400
C1873       C  0.20620968  0.72625872  0.52604679     1.03800
O1874       O  0.14854530  0.73544740  0.52711832    -1.13400
O1875       O  0.14273975  0.75477275  0.96682974    -0.75800
O1876       O  0.16839792  0.77690172  0.99295333    -0.79300
O1877       O  0.16322916  0.71715734  0.58659053    -0.80000
C1878       C  0.15905885  0.77022625  0.96847916     0.95300
O1879       O  0.13781933  0.78382733  0.54717480    -0.77900
O1880       O  0.12513774  0.70767808  0.97927687    -0.83100
C1881       C  0.10125754  0.70771484  0.54991450     0.97900
C1882       C  0.13714120  0.68893631  0.98298585     1.03800
O1883       O  0.12131637  0.69816526  0.55627707    -0.78800
C1884       C  0.11891178  0.78715160  0.53270324     1.02100
Fe1885     Fe  0.34315933  0.77153645  0.73856401     1.65800
Fe1886     Fe  0.39247680  0.79806343  0.76518490     1.73200
Fe1887     Fe  0.35314378  0.83048995  0.72578347     1.54400
O1888       O  0.35299576  0.81479401  0.68438722    -0.82500
O1889       O  0.38692029  0.83081664  0.78439683    -0.80800
O1890       O  0.33562644  0.77985732  0.69434218    -0.85000
O1891       O  0.31371399  0.78886286  0.75417646    -0.79900
O1892       O  0.38767512  0.84244110  0.71754170    -0.81600
O1893       O  0.37604002  0.78285260  0.80147580    -0.84400
C1894       C  0.30523363  0.80888842  0.74675053     0.96400
C1895       C  0.34482712  0.79476322  0.67619070     1.03800
O1896       O  0.36284332  0.79995832  0.74341940    -1.13400
O1897       O  0.40165836  0.76496250  0.74913656    -0.75800
O1898       O  0.37082917  0.75168039  0.72298586    -0.79300
O1899       O  0.31705195  0.82425756  0.73198140    -0.80000
C1900       C  0.39204415  0.74996876  0.73188437     0.95300
O1901       O  0.34893437  0.75897312  0.78175020    -0.77900
O1902       O  0.41147707  0.81300865  0.73053905    -0.83100
C1903       C  0.37053679  0.84627387  0.78534553     0.97900
C1904       C  0.40808004  0.83298483  0.71804903     1.03800
O1905       O  0.35372214  0.84723784  0.76656271    -0.78800
C1906       C  0.36110633  0.76604109  0.80383710     1.02100
Fe1907     Fe  0.17041669  0.77337314  0.78662752     1.65800
Fe1908     Fe  0.12101307  0.79665490  0.75438533     1.73200
Fe1909     Fe  0.15819016  0.83285567  0.79502738     1.54400
O1910       O  0.16593281  0.81929735  0.83679267    -0.82500
O1911       O  0.12722499  0.82723496  0.73085001    -0.80800
O1912       O  0.17132998  0.78046638  0.83150300    -0.85000
O1913       O  0.20129387  0.79235317  0.77939755    -0.79900
O1914       O  0.12369099  0.83910913  0.80944055    -0.81600
O1915       O  0.13857450  0.77802574  0.72149971    -0.84400
C1916       C  0.20761757  0.81402867  0.77845758     0.96400
C1917       C  0.17008242  0.79886609  0.84763764     1.03800
O1918       O  0.14991718  0.80100200  0.77861791    -1.13400
O1919       O  0.11054771  0.76542972  0.77437554    -0.75800
O1920       O  0.14260923  0.75047095  0.79576322    -0.79300
O1921       O  0.19345042  0.83108134  0.78275368    -0.80000
C1922       C  0.12082238  0.74929558  0.78919454     0.95300
O1923       O  0.17136567  0.76305331  0.74208996    -0.77900
O1924       O  0.09987654  0.81463404  0.78413631    -0.83100
C1925       C  0.13916653  0.84626263  0.73303850     0.97900
C1926       C  0.10326581  0.83100890  0.80301353     1.03800
O1927       O  0.15210395  0.85079457  0.75535833    -0.78800
C1928       C  0.15747453  0.76592658  0.71999284     1.02100
Fe1929     Fe  0.01345397  0.43091048  0.91035811     1.65800
Fe1930     Fe  0.03765432  0.38068847  0.88270902     1.73200
Fe1931     Fe  0.07279951  0.41976070  0.91978816     1.54400
O1932       O  0.06879444  0.45552244  0.90981723    -0.82500
O1933       O  0.05325459  0.36063348  0.91584622    -0.80800
O1934       O  0.03140796  0.46033454  0.89523330    -0.85000
O1935       O  0.02247004  0.43673981  0.95467662    -0.79900
O1936       O  0.08906667  0.41644997  0.87865786    -0.81600
O1937       O  0.00504767  0.37196507  0.90137428    -0.84400
C1938       C  0.03952485  0.43104918  0.97186964     0.96400
C1939       C  0.05245253  0.46780045  0.89802547     1.03800
O1940       O  0.04125723  0.41044839  0.90444487    -1.13400
O1941       O  0.02208030  0.39796860  0.84758620    -0.75800
O1942       O  0.00037346  0.42668532  0.86686250    -0.79300
O1943       O  0.05932502  0.42396935  0.96204879    -0.80000
C1944       C  0.00644379  0.41389182  0.84485011     0.95300
O1945       O  0.99235325  0.40376597  0.92587858    -0.77900
O1946       O  0.06948774  0.38528172  0.86047699    -0.83100
C1947       C  0.07227198  0.36450609  0.92996462     0.97900
C1948       C  0.08619790  0.40049164  0.85915273     1.03800
O1949       O  0.08182247  0.38501040  0.93143307    -0.78800
C1950       C  0.99038662  0.38218743  0.91846568     1.02100
Fe1951     Fe  0.01271078  0.60014857  0.85344789     1.65800
Fe1952     Fe  0.03715839  0.64919472  0.88361899     1.73200
Fe1953     Fe  0.07036223  0.61296331  0.84033279     1.54400
O1954       O  0.07091567  0.57942059  0.85873857    -0.82500
O1955       O  0.05951132  0.66935963  0.85636064    -0.80800
O1956       O  0.03288734  0.56933294  0.85420732    -0.85000
O1957       O  0.01600904  0.60339733  0.80821059    -0.79900
O1958       O  0.09048605  0.62518098  0.87662573    -0.81600
O1959       O  0.00891339  0.66151994  0.85865593    -0.84400
C1960       C  0.03366555  0.60133070  0.79104027     0.96400
C1961       C  0.05444126  0.56407629  0.85910295     1.03800
O1962       O  0.04017311  0.62064078  0.85941350    -1.13400
O1963       O  0.01498825  0.63255289  0.91462010    -0.75800
O1964       O  0.00778570  0.59572652  0.89859016    -0.79300
O1965       O  0.05472386  0.60037437  0.80104324    -0.80000
C1966       C  0.00760199  0.61135920  0.91881507     0.95300
O1967       O  0.98848385  0.62821910  0.85134944    -0.77900
O1968       O  0.06527452  0.63963082  0.91011525    -0.83100
C1969       C  0.07001591  0.66613586  0.83155962     0.97900
C1970       C  0.08605980  0.63400658  0.90220785     1.03800
O1971       O  0.07188158  0.64575211  0.82007463    -0.78800
C1972       C  0.99035074  0.65080123  0.85010738     1.02100
Fe1973     Fe  0.99986165  0.42912535  0.65902052     1.65800
Fe1974     Fe  0.97300736  0.38181694  0.62667819     1.73200
Fe1975     Fe  0.94054532  0.41921653  0.67059208     1.54400
O1976       O  0.95583791  0.42202442  0.71251156    -0.82500
O1977       O  0.94021088  0.38699776  0.60793056    -0.80800
O1978       O  0.99376337  0.43143786  0.70448384    -0.85000
O1979       O  0.98285850  0.46012170  0.65013364    -0.79900
O1980       O  0.93204285  0.38435479  0.68159916    -0.81600
O1981       O  0.98780134  0.40087781  0.59176788    -0.84400
C1982       C  0.96220372  0.46817751  0.65353109     0.96400
C1983       C  0.97654657  0.42675732  0.72179837     1.03800
O1984       O  0.97108634  0.41015949  0.65200998    -1.13400
O1985       O  0.00628791  0.37160406  0.64037281    -0.75800
O1986       O  0.02067828  0.40039656  0.66863761    -0.79300
O1987       O  0.94483852  0.45537492  0.66191332    -0.80000
C1988       C  0.02223091  0.38004860  0.65706112     0.95300
O1989       O  0.00976712  0.42865467  0.61437312    -0.77900
O1990       O  0.95851457  0.36063360  0.65993346    -0.83100
C1991       C  0.92284604  0.40098392  0.61057504     0.97900
C1992       C  0.94102505  0.36397151  0.67728988     1.03800
O1993       O  0.92153669  0.41646030  0.63103432    -0.78800
C1994       C  0.00307379  0.41753891  0.59120824     1.02100
Fe1995     Fe  0.00218311  0.60515298  0.60370792     1.65800
Fe1996     Fe  0.97325610  0.65276229  0.63219116     1.73200
Fe1997     Fe  0.94369182  0.61174967  0.59090286     1.54400
O1998       O  0.96014398  0.59615053  0.55434653    -0.82500
O1999       O  0.94347264  0.64356595  0.65645816    -0.80800
O2000       O  0.99805975  0.60524453  0.55831166    -0.85000
O2001       O  0.98464373  0.57289762  0.60851864    -0.79900
O2002       O  0.94081659  0.64313064  0.56645002    -0.81600
O2003       O  0.99312358  0.63785882  0.66661699    -0.84400
C2004       C  0.96406269  0.56644091  0.61683672     0.96400
C2005       C  0.98043432  0.59904519  0.54280274     1.03800
O2006       O  0.97308687  0.62333152  0.60921355    -1.13400
O2007       O  0.00301442  0.66629965  0.61073951    -0.75800
O2008       O  0.02374567  0.63451826  0.59772913    -0.79300
O2009       O  0.94617416  0.58017279  0.61510273    -0.80000
C2010       C  0.02125919  0.65684948  0.59945152     0.95300
O2011       O  0.00865981  0.60427755  0.64879524    -0.77900
O2012       O  0.95290798  0.66992001  0.59991862    -0.83100
C2013       C  0.92340412  0.63671142  0.64726703     0.97900
C2014       C  0.94317790  0.66457668  0.57508478     1.03800
O2015       O  0.92083899  0.62567742  0.62288218    -0.78800
C2016       C  0.00445805  0.61849595  0.66996099     1.02100
Fe2017     Fe  0.51107530  0.10512212  0.61217234     1.65800
Fe2018     Fe  0.53528969  0.15349847  0.64168636     1.73200
Fe2019     Fe  0.56844562  0.11692696  0.59905608     1.54400
O2020       O  0.56296444  0.08019350  0.60556981    -0.82500
O2021       O  0.54753274  0.17461226  0.60745191    -0.80800
O2022       O  0.52908839  0.07774172  0.63091777    -0.85000
O2023       O  0.52088420  0.09464946  0.56948830    -0.79900
O2024       O  0.58721788  0.11874080  0.63894889    -0.81600
O2025       O  0.50061960  0.16068104  0.62702190    -0.84400
C2026       C  0.53398805  0.10457870  0.55006983     0.96400
C2027       C  0.54763330  0.06837234  0.62056876     1.03800
O2028       O  0.53849286  0.12528387  0.61774925    -1.13400
O2029       O  0.52349677  0.13333147  0.67744920    -0.75800
O2030       O  0.49668779  0.11138094  0.65393809    -0.79300
O2031       O  0.55221014  0.11628136  0.55766340    -0.80000
C2032       C  0.50615012  0.11894042  0.67771111     0.95300
O2033       O  0.49228597  0.13267970  0.59372247    -0.77900
O2034       O  0.56953875  0.15061490  0.65835966    -0.83100
C2035       C  0.56684646  0.17211976  0.59339087     0.97900
C2036       C  0.58695023  0.13635126  0.65668134     1.03800
O2037       O  0.57709685  0.15214437  0.59061435    -0.78800
C2038       C  0.48800533  0.15256849  0.60569963     1.02100
Fe2039     Fe  0.51078366  0.93066844  0.65909780     1.65800
Fe2040     Fe  0.53778062  0.88209344  0.63554842     1.73200
Fe2041     Fe  0.56771849  0.92286862  0.67598872     1.54400
O2042       O  0.56586909  0.95483897  0.65229579    -0.82500
O2043       O  0.55935581  0.86505458  0.66576645    -0.80800
O2044       O  0.52894668  0.96225148  0.66413840    -0.85000
O2045       O  0.51149387  0.92507997  0.70370903    -0.79900
O2046       O  0.59005863  0.91015699  0.64248742    -0.81600
O2047       O  0.50867481  0.87075326  0.66064099    -0.84400
C2048       C  0.52774230  0.93063165  0.72182050     0.96400
C2049       C  0.54837732  0.96890434  0.65292126     1.03800
O2050       O  0.53915012  0.91175680  0.65644621    -1.13400
O2051       O  0.51705390  0.89683809  0.60200645    -0.75800
O2052       O  0.51020593  0.93478025  0.61348508    -0.79300
O2053       O  0.54849779  0.93611066  0.71268144    -0.80000
C2054       C  0.51031585  0.91776530  0.59494642     0.95300
O2055       O  0.48692595  0.90300676  0.65609479    -0.77900
O2056       O  0.56676360  0.89085968  0.61028813    -0.83100
C2057       C  0.56946345  0.87000758  0.69027851     0.97900
C2058       C  0.58672411  0.89925174  0.61797021     1.03800
O2059       O  0.57121709  0.89123306  0.69966579    -0.78800
C2060       C  0.48911284  0.88149708  0.66385445     1.02100
Fe2061     Fe  0.50144587  0.10097169  0.86021026     1.65800
Fe2062     Fe  0.47858599  0.14995814  0.88848930     1.73200
Fe2063     Fe  0.44314872  0.11335296  0.84912087     1.54400
O2064       O  0.45820921  0.09973935  0.80986138    -0.82500
O2065       O  0.45360282  0.13652549  0.91623993    -0.80800
O2066       O  0.49730791  0.10412763  0.81493574    -0.85000
O2067       O  0.48134492  0.07018608  0.86135475    -0.79900
O2068       O  0.43939887  0.14575593  0.82735775    -0.81600
O2069       O  0.50288813  0.13504559  0.91852547    -0.84400
C2070       C  0.46019715  0.06480784  0.86837003     0.96400
C2071       C  0.47902065  0.10132609  0.79879445     1.03800
O2072       O  0.47446316  0.12165456  0.86518805    -1.13400
O2073       O  0.50498701  0.16275584  0.86139925    -0.75800
O2074       O  0.52553487  0.12906151  0.85785977    -0.79300
O2075       O  0.44382447  0.08020451  0.86978717    -0.80000
C2076       C  0.52362973  0.15149347  0.85476741     0.95300
O2077       O  0.50627417  0.09705911  0.90593229    -0.77900
O2078       O  0.45407753  0.16945202  0.86237775    -0.83100
C2079       C  0.43202943  0.13676197  0.90987862     0.97900
C2080       C  0.44165140  0.16615455  0.83899497     1.03800
O2081       O  0.42444881  0.12797405  0.88549194    -0.78800
C2082       C  0.50798482  0.11357781  0.92499690     1.02100
Fe2083     Fe  0.49889190  0.92820721  0.90915443     1.65800
Fe2084     Fe  0.47166386  0.87765296  0.88451367     1.73200
Fe2085     Fe  0.44038170  0.91856958  0.92522624     1.54400
O2086       O  0.45673223  0.93085618  0.96306417    -0.82500
O2087       O  0.43982512  0.88311189  0.86302746    -0.80800
O2088       O  0.49542872  0.93124608  0.95455504    -0.85000
O2089       O  0.48051262  0.95921399  0.90113860    -0.79900
O2090       O  0.43648193  0.88585810  0.94668428    -0.81600
O2091       O  0.48868143  0.89280908  0.84828033    -0.84400
C2092       C  0.45909175  0.96576860  0.89942315     0.96400
C2093       C  0.47786169  0.93249169  0.97201978     1.03800
O2094       O  0.47022785  0.90818448  0.90604238    -1.13400
O2095       O  0.50336243  0.86705989  0.90373242    -0.75800
O2096       O  0.52131402  0.90028201  0.91810055    -0.79300
O2097       O  0.44174018  0.95217258  0.90575152    -0.80000
C2098       C  0.52056707  0.87788010  0.91575416     0.95300
O2099       O  0.50544347  0.92656960  0.86402652    -0.77900
O2100       O  0.45458200  0.85933869  0.91812489    -0.83100
C2101       C  0.42062920  0.89355825  0.86941662     0.97900
C2102       C  0.44219338  0.86452934  0.94077453     1.03800
O2103       O  0.41848440  0.90757162  0.89118342    -0.78800
C2104       C  0.50048382  0.91175107  0.84371244     1.02100
Fe2105     Fe  0.84438053  0.76950631  0.53311629     1.65800
Fe2106     Fe  0.89133487  0.79581019  0.49806752     1.73200
Fe2107     Fe  0.85326484  0.82962477  0.53975075     1.54400
O2108       O  0.81758649  0.82509487  0.52720310    -0.82500
O2109       O  0.91244653  0.81185277  0.52942866    -0.80800
O2110       O  0.81251170  0.78599595  0.52605504    -0.85000
O2111       O  0.84311054  0.77691592  0.57816590    -0.79900
O2112       O  0.85839788  0.84855163  0.50040656    -0.81600
O2113       O  0.90206479  0.76287376  0.51374007    -0.84400
C2114       C  0.84380822  0.79565558  0.59378442     0.96400
C2115       C  0.80443791  0.80684936  0.52335692     1.03800
O2116       O  0.86297721  0.79837646  0.52364678    -1.13400
O2117       O  0.87447313  0.77908801  0.96627764    -0.75800
O2118       O  0.84296802  0.76198900  0.98815416    -0.79300
O2119       O  0.84685031  0.81607032  0.58214736    -0.80000
C2120       C  0.85589030  0.76642453  0.96543267     0.95300
O2121       O  0.87325258  0.74855416  0.54219149    -0.77900
O2122       O  0.88687026  0.82768949  0.97634922    -0.83100
C2123       C  0.90885376  0.82884007  0.54740903     0.97900
C2124       C  0.87524198  0.84664841  0.97980120     1.03800
O2125       O  0.88826927  0.83720491  0.55304600    -0.78800
C2126       C  0.89368945  0.74698977  0.53093213     1.02100
Fe2127     Fe  0.66696499  0.77389725  0.98801908     1.65800
Fe2128     Fe  0.61635954  0.80045606  0.51948376     1.73200
Fe2129     Fe  0.65656031  0.83296728  0.97804354     1.54400
O2130       O  0.69308829  0.82813204  0.98581047    -0.82500
O2131       O  0.59798003  0.81191952  0.98394554    -0.80800
O2132       O  0.69581208  0.79136411  0.00393892    -0.85000
O2133       O  0.67417236  0.78306165  0.94349246    -0.79900
O2134       O  0.65459199  0.85023224  0.51656637    -0.81600
O2135       O  0.61038193  0.76433235  0.00308944    -0.84400
C2136       C  0.66849510  0.80015862  0.92606109     0.96400
C2137       C  0.70504604  0.81117286  0.99731591     1.03800
O2138       O  0.64720707  0.80177094  0.99437355    -1.13400
O2139       O  0.63377867  0.78747156  0.55605788    -0.75800
O2140       O  0.65916424  0.76220473  0.53532369    -0.79300
O2141       O  0.65984759  0.81930166  0.93593590    -0.80000
C2142       C  0.64855980  0.77065058  0.55785684     0.95300
O2143       O  0.63938311  0.75358952  0.97252473    -0.77900
O2144       O  0.62160163  0.83418875  0.53599877    -0.83100
C2145       C  0.60109566  0.83103887  0.96928250     0.97900
C2146       C  0.63751989  0.85022092  0.53509731     1.03800
O2147       O  0.62115511  0.84162501  0.96750441    -0.78800
C2148       C  0.61921745  0.75017305  0.98417855     1.02100
Fe2149     Fe  0.84881884  0.76505829  0.78355960     1.65800
Fe2150     Fe  0.89588729  0.73854141  0.75018033     1.73200
Fe2151     Fe  0.85564545  0.70491270  0.79046618     1.54400
O2152       O  0.84873690  0.71858571  0.83250797    -0.82500
O2153       O  0.88835199  0.70785948  0.72728094    -0.80800
O2154       O  0.84981962  0.75817711  0.82846289    -0.85000
O2155       O  0.81630833  0.74917057  0.78031822    -0.79900
O2156       O  0.88992716  0.69594519  0.80502509    -0.81600
O2157       O  0.87824195  0.75714503  0.71698284    -0.84400
C2158       C  0.80763963  0.72884906  0.77564107     0.96400
C2159       C  0.84815249  0.73921477  0.84389304     1.03800
O2160       O  0.86688023  0.73609822  0.77477070    -1.13400
O2161       O  0.90877659  0.76986792  0.76856132    -0.75800
O2162       O  0.87770671  0.78660939  0.78945534    -0.79300
O2163       O  0.82040936  0.71023902  0.77684735    -0.80000
C2164       C  0.89931012  0.78693277  0.78239340     0.95300
O2165       O  0.84655076  0.77376053  0.73846810    -0.77900
O2166       O  0.91574114  0.71978033  0.78101928    -0.83100
C2167       C  0.87478556  0.68990894  0.72926682     0.97900
C2168       C  0.91100231  0.70319404  0.79955783     1.03800
O2169       O  0.86070191  0.68677643  0.75093769    -0.78800
C2170       C  0.85930677  0.76928679  0.71574196     1.02100
Fe2171     Fe  0.66746902  0.76574414  0.73942194     1.65800
Fe2172     Fe  0.61898238  0.73996164  0.77008054     1.73200
Fe2173     Fe  0.65753557  0.70628057  0.73123423     1.54400
O2174       O  0.65839492  0.72027399  0.68880864    -0.82500
O2175       O  0.62251944  0.70621548  0.78858466    -0.80800
O2176       O  0.67217155  0.75728920  0.69472959    -0.85000
O2177       O  0.69786326  0.74924709  0.75250798    -0.79900
O2178       O  0.62236303  0.69616777  0.72260875    -0.81600
O2179       O  0.63711048  0.75408711  0.80576488    -0.84400
C2180       C  0.70663172  0.72903396  0.74750070     0.96400
C2181       C  0.66474967  0.74035363  0.67847222     1.03800
O2182       O  0.64822939  0.73736391  0.74718058    -1.13400
O2183       O  0.61040539  0.77389976  0.75536288    -0.75800
O2184       O  0.63955058  0.78602706  0.72566702    -0.79300
O2185       O  0.69420356  0.71179420  0.73765220    -0.80000
C2186       C  0.61925553  0.78863476  0.73689518     0.95300
O2187       O  0.66415447  0.77733264  0.78306854    -0.77900
O2188       O  0.59942871  0.72630155  0.73520116    -0.83100
C2189       C  0.63783537  0.68971226  0.78910026     0.97900
C2190       C  0.60232187  0.70654322  0.72221165     1.03800
O2191       O  0.65593919  0.68973319  0.77236458    -0.78800
C2192       C  0.65318529  0.76999276  0.80622304     1.02100
Fe2193     Fe  0.33811913  0.26932916  0.78793976     1.65800
Fe2194     Fe  0.38669503  0.29585219  0.75932870     1.73200
Fe2195     Fe  0.34740067  0.32842564  0.79988762     1.54400
O2196       O  0.31355757  0.32640330  0.78133015    -0.82500
O2197       O  0.40517290  0.31770534  0.78796249    -0.80800
O2198       O  0.30677361  0.28762642  0.78568019    -0.85000
O2199       O  0.34079471  0.27326349  0.83349855    -0.79900
O2200       O  0.35874452  0.34904402  0.76351620    -0.81600
O2201       O  0.39888863  0.26676377  0.78415416    -0.84400
C2202       C  0.33886644  0.29146116  0.84994396     0.96400
C2203       C  0.29960798  0.30859346  0.78055124     1.03800
O2204       O  0.35731479  0.29807834  0.78201757    -1.13400
O2205       O  0.37113445  0.27439699  0.72716174    -0.75800
O2206       O  0.33501560  0.26388694  0.74282993    -0.79300
O2207       O  0.33599061  0.31234869  0.83948556    -0.80000
C2208       C  0.35078910  0.26521196  0.72272062     0.95300
O2209       O  0.36621315  0.24570972  0.79036820    -0.77900
O2210       O  0.37844140  0.32489590  0.73298524    -0.83100
C2211       C  0.40100659  0.32978125  0.81126567     0.97900
C2212       C  0.37036233  0.34523516  0.73964756     1.03800
O2213       O  0.38003539  0.33319265  0.82035444    -0.78800
C2214       C  0.38851739  0.24763440  0.79201256     1.02100
Fe2215     Fe  0.16078153  0.26964990  0.72964956     1.65800
Fe2216     Fe  0.11312656  0.29968952  0.75688938     1.73200
Fe2217     Fe  0.15644273  0.32945036  0.71731239     1.54400
O2218       O  0.18906264  0.32477053  0.73777050    -0.82500
O2219       O  0.09677633  0.31857317  0.72312478    -0.80800
O2220       O  0.19346226  0.28538972  0.73723263    -0.85000
O2221       O  0.16340896  0.27458632  0.68405348    -0.79900
O2222       O  0.14648682  0.35148017  0.75207827    -0.81600
O2223       O  0.09982112  0.26902541  0.73712975    -0.84400
C2224       C  0.16697021  0.29276907  0.66770177     0.96400
C2225       C  0.20145053  0.30618784  0.74195004     1.03800
O2226       O  0.14345495  0.29968231  0.73491606    -1.13400
O2227       O  0.12744984  0.28101447  0.79290025    -0.75800
O2228       O  0.15908010  0.26190301  0.77493654    -0.79300
O2229       O  0.16777338  0.31360936  0.67821905    -0.80000
C2230       C  0.14549548  0.26774801  0.79631535     0.95300
O2231       O  0.13112679  0.24948048  0.72065946    -0.77900
O2232       O  0.12032983  0.33092480  0.77917842    -0.83100
C2233       C  0.10337612  0.33119731  0.70088306     0.97900
C2234       C  0.13189003  0.34979847  0.77346182     1.03800
O2235       O  0.12494441  0.33610290  0.69567209    -0.78800
C2236       C  0.10897118  0.25152966  0.72377649     1.02100
Fe2237     Fe  0.33965597  0.26264757  0.53911187     1.65800
Fe2238     Fe  0.39048170  0.24275757  0.51274478     1.73200
Fe2239     Fe  0.35407753  0.20438406  0.54849125     1.54400
O2240       O  0.34086223  0.21724347  0.58895306    -0.82500
O2241       O  0.37650750  0.21840509  0.98095142    -0.80800
O2242       O  0.33978911  0.25700821  0.58461053    -0.85000
O2243       O  0.30939125  0.24204072  0.53334140    -0.79900
O2244       O  0.38651585  0.20080063  0.56930129    -0.81600
O2245       O  0.37723095  0.26929972  0.98467280    -0.84400
C2246       C  0.30528371  0.22060716  0.52606692     0.96400
C2247       C  0.33969094  0.23799894  0.60027872     1.03800
O2248       O  0.36146992  0.23649570  0.53432201    -1.13400
O2249       O  0.40119817  0.26682136  0.54357579    -0.75800
O2250       O  0.36732917  0.28716975  0.54540153    -0.79300
O2251       O  0.32086912  0.20441541  0.52815151    -0.80000
C2252       C  0.38958726  0.28534200  0.54990151     0.95300
O2253       O  0.33925029  0.27040599  0.99356794    -0.77900
O2254       O  0.41002804  0.21699980  0.53529000    -0.83100
C2255       C  0.37604879  0.19636692  0.98647408     0.97900
C2256       C  0.40692604  0.20398557  0.55815026     1.03800
O2257       O  0.36869879  0.18849183  0.51063119    -0.78800
C2258       C  0.35649397  0.27380379  0.97595838     1.02100
Fe2259     Fe  0.17434870  0.26149993  0.97926309     1.65800
Fe2260     Fe  0.12452942  0.23863139  0.51003575     1.73200
Fe2261     Fe  0.15996301  0.20363403  0.96791529     1.54400
O2262       O  0.17232486  0.21926138  0.92780551    -0.82500
O2263       O  0.13587449  0.21197773  0.53748718    -0.80800
O2264       O  0.16833478  0.25829491  0.93424727    -0.85000
O2265       O  0.20451160  0.24076069  0.97714280    -0.79900
O2266       O  0.12676918  0.20185462  0.94842796    -0.81600
O2267       O  0.14125377  0.26199715  0.53904523    -0.84400
C2268       C  0.20955056  0.21955424  0.98482024     0.96400
C2269       C  0.16965690  0.24030332  0.91730946     1.03800
O2270       O  0.15354755  0.23459657  0.98577141    -1.13400
O2271       O  0.11352812  0.26572638  0.98489443    -0.75800
O2272       O  0.14698790  0.28630010  0.98089976    -0.79300
O2273       O  0.19384248  0.20325228  0.98651084    -0.80000
C2274       C  0.12459730  0.28474782  0.97845652     0.95300
O2275       O  0.17878724  0.26533281  0.52446170    -0.77900
O2276       O  0.10568561  0.21473667  0.98659437    -0.83100
C2277       C  0.13542071  0.19047605  0.52976833     0.97900
C2278       C  0.10722249  0.20334536  0.96226035     1.03800
O2279       O  0.14421912  0.18378085  0.50487993    -0.78800
C2280       C  0.16270973  0.26769489  0.54400102     1.02100
Fe2281     Fe  0.99837440  0.10596798  0.90660656     1.65800
Fe2282     Fe  0.97459511  0.15854813  0.88755041     1.73200
Fe2283     Fe  0.94073894  0.11729559  0.92151879     1.54400
O2284       O  0.94478911  0.08157668  0.90890549    -0.82500
O2285       O  0.96283810  0.17452573  0.92579914    -0.80800
O2286       O  0.97968522  0.07933123  0.88621350    -0.85000
O2287       O  0.98910446  0.09252053  0.94817616    -0.79900
O2288       O  0.92371705  0.12323676  0.88162184    -0.81600
O2289       O  0.00916427  0.16395975  0.90270876    -0.84400
C2290       C  0.97520962  0.09975152  0.96840085     0.96400
C2291       C  0.95964667  0.07047866  0.89274214     1.03800
O2292       O  0.97124447  0.12720796  0.90517666    -1.13400
O2293       O  0.98609079  0.14368574  0.84858192    -0.75800
O2294       O  0.01092802  0.11631630  0.86489426    -0.79300
O2295       O  0.95655783  0.11143560  0.96240361    -0.80000
C2296       C  0.00227443  0.12864925  0.84377465     0.95300
O2297       O  0.01961082  0.13110198  0.92716370    -0.77900
O2298       O  0.94058094  0.15801802  0.86965448    -0.83100
C2299       C  0.94276748  0.17150588  0.93778486     0.97900
C2300       C  0.92445087  0.14237582  0.86647617     1.03800
O2301       O  0.93177640  0.15177208  0.93530671    -0.78800
C2302       C  0.02319636  0.15269423  0.91991590     1.02100
Fe2303     Fe  0.00314462  0.93430778  0.85431644     1.65800
Fe2304     Fe  0.97645522  0.88581881  0.88437239     1.73200
Fe2305     Fe  0.94550620  0.92354589  0.83949764     1.54400
O2306       O  0.94495114  0.95648411  0.85972991    -0.82500
O2307       O  0.95527241  0.86663616  0.85459005    -0.80800
O2308       O  0.98338071  0.96578925  0.85641196    -0.85000
O2309       O  0.99978812  0.93204133  0.80906802    -0.79900
O2310       O  0.92364324  0.90968168  0.87298776    -0.81600
O2311       O  0.00548949  0.87267452  0.86205565    -0.84400
C2312       C  0.98250944  0.93585252  0.79180185     0.96400
C2313       C  0.96178131  0.97155924  0.86078439     1.03800
O2314       O  0.97502643  0.91470418  0.85990993    -1.13400
O2315       O  0.99776529  0.90169153  0.91699615    -0.75800
O2316       O  0.00903393  0.93730414  0.89944874    -0.79300
O2317       O  0.96178277  0.93832936  0.80197461    -0.80000
C2318       C  0.00744244  0.92203719  0.92036062     0.95300
O2319       O  0.02615689  0.90532887  0.85082694    -0.77900
O2320       O  0.94731879  0.89581892  0.90874641    -0.83100
C2321       C  0.94656274  0.87049461  0.82867202     0.97900
C2322       C  0.92688669  0.90075953  0.89883706     1.03800
O2323       O  0.94500305  0.89132853  0.81767627    -0.78800
C2324       C  0.02389692  0.88276203  0.85183782     1.02100
Fe2325     Fe  0.00259341  0.10287236  0.65757428     1.65800
Fe2326     Fe  0.02870202  0.14738850  0.62058833     1.73200
Fe2327     Fe  0.06069054  0.11687011  0.67055743     1.54400
O2328       O  0.04377276  0.10656529  0.71018929    -0.82500
O2329       O  0.05532878  0.12979450  0.60012851    -0.80800
O2330       O  0.00496130  0.10949629  0.70196475    -0.85000
O2331       O  0.02302322  0.07222984  0.66088717    -0.79900
O2332       O  0.06188321  0.15092746  0.68718824    -0.81600
O2333       O  0.00706734  0.12881002  0.59167825    -0.84400
C2334       C  0.04448991  0.06683907  0.65524990     0.96400
C2335       C  0.02258883  0.10937342  0.71935234     1.03800
O2336       O  0.03018427  0.12286253  0.65053894    -1.13400
O2337       O  0.00019020  0.16353410  0.63940345    -0.75800
O2338       O  0.97927514  0.13199005  0.65485144    -0.79300
O2339       O  0.06104658  0.08228476  0.65471293    -0.80000
C2340       C  0.98146211  0.15439887  0.65019485     0.95300
O2341       O  0.99834624  0.09424789  0.61339141    -0.77900
O2342       O  0.05089214  0.17038465  0.64595011    -0.83100
C2343       C  0.07628766  0.13303094  0.60769981     0.97900
C2344       C  0.06027165  0.17006438  0.67205949     1.03800
O2345       O  0.08240156  0.12886995  0.63457515    -0.78800
C2346       C  0.99969530  0.10750866  0.59057011     1.02100
Fe2347     Fe  0.00943363  0.92972531  0.60448660     1.65800
Fe2348     Fe  0.03661403  0.87984669  0.63157813     1.73200
Fe2349     Fe  0.06883312  0.92241375  0.59353301     1.54400
O2350       O  0.05398137  0.93373265  0.55346731    -0.82500
O2351       O  0.06808827  0.88468894  0.65405628    -0.80800
O2352       O  0.01499822  0.93241587  0.55922968    -0.85000
O2353       O  0.02648292  0.96155470  0.61355552    -0.79900
O2354       O  0.07480348  0.89016619  0.57290173    -0.81600
O2355       O  0.01900028  0.89514365  0.66724671    -0.84400
C2356       C  0.04751113  0.96874763  0.61802064     0.96400
C2357       C  0.03319599  0.93411332  0.54280384     1.03800
O2358       O  0.03838249  0.91066385  0.61016155    -1.13400
O2359       O  0.00526951  0.86881446  0.61210137    -0.75800
O2360       O  0.98782865  0.90131810  0.59464368    -0.79300
O2361       O  0.06547421  0.95580724  0.61295698    -0.80000
C2362       C  0.98844235  0.87904431  0.59858169     0.95300
O2363       O  0.00112165  0.92775848  0.64918302    -0.77900
O2364       O  0.05441090  0.86236180  0.59781014    -0.83100
C2365       C  0.08714598  0.89623092  0.64999504     0.97900
C2366       C  0.06865558  0.86861901  0.57709624     1.03800
O2367       O  0.08951046  0.91195322  0.62974809    -0.78800
C2368       C  0.00647829  0.91374859  0.67050894     1.02100
C2369       C  0.06319467  0.03471708  0.62349579    -0.02700
C2370       C  0.04969250  0.04140365  0.64876944     0.07000
C2371       C  0.03859936  0.02348730  0.66606518    -0.02800
C2372       C  0.03873716  0.99974035  0.65648986    -0.02800
C2373       C  0.05061872  0.99322077  0.63004859     0.07100
C2374       C  0.06369185  0.01067990  0.61426276    -0.03000
Br2375     Br  0.08064128  0.00205267  0.57852758    -0.01500
Br2376     Br  0.07979491  0.05839178  0.60008013    -0.01600
Br2377     Br  0.02220987  0.97629957  0.67993013    -0.01600
Br2378     Br  0.02339403  0.03124112  0.70349470    -0.01600
C2379       C  0.03750553  0.91786810  0.96121594    -0.02700
C2380       C  0.01674201  0.92843226  0.95014618     0.07000
C2381       C  0.00475771  0.94519341  0.96767606    -0.02800
C2382       C  0.01053247  0.94838206  0.49787916    -0.02800
C2383       C  0.02967262  0.93526452  0.50983684     0.07100
C2384       C  0.04461550  0.92179206  0.99099827    -0.03000
Br2385     Br  0.07284203  0.90620280  0.00516396    -0.01500
Br2386     Br  0.05664461  0.89877403  0.93500021    -0.01600
Br2387     Br  0.99391254  0.97115415  0.52220375    -0.01600
Br2388     Br  0.97894128  0.96286851  0.95070069    -0.01600
C2389       C  0.96903440  0.92936829  0.73804438    -0.02700
C2390       C  0.98697026  0.93561734  0.75892129     0.07000
C2391       C  0.01059088  0.93747316  0.74866818    -0.02800
C2392       C  0.01692459  0.92750066  0.72124283    -0.02800
C2393       C  0.99932039  0.92061452  0.70087702     0.07100
C2394       C  0.97530914  0.92321264  0.70855986    -0.03000
Br2395     Br  0.95110041  0.91747279  0.67897251    -0.01500
Br2396     Br  0.93593013  0.92845661  0.74874089    -0.01600
Br2397     Br  0.04991198  0.92381453  0.71147095    -0.01600
Br2398     Br  0.03439470  0.95470845  0.77101290    -0.01600
C2399       C  0.00525281  0.09627023  0.50889679    -0.02700
C2400       C  0.98104881  0.09535323  0.50051279     0.07000
C2401       C  0.96360860  0.09195179  0.52285302    -0.02800
C2402       C  0.96995755  0.09326255  0.55320549    -0.02800
C2403       C  0.99354613  0.09811184  0.56103713     0.07100
C2404       C  0.01130447  0.09721425  0.53915344    -0.03000
Br2405     Br  0.04414354  0.09672478  0.55066625    -0.01500
Br2406     Br  0.03186547  0.09726756  0.98038100    -0.01600
Br2407     Br  0.94655372  0.08842866  0.58386565    -0.01600
Br2408     Br  0.93114517  0.08527559  0.51218324    -0.01600
C2409       C  0.02371927  0.10433809  0.80409092    -0.02700
C2410       C  0.01034401  0.12479210  0.81230707     0.07000
C2411       C  0.00272596  0.14060524  0.78938008    -0.02800
C2412       C  0.00499541  0.13425493  0.75930576    -0.02800
C2413       C  0.01817035  0.11401810  0.75128246     0.07100
C2414       C  0.02785163  0.09935528  0.77368585    -0.03000
Br2415     Br  0.04520627  0.07120417  0.76256996    -0.01500
Br2416     Br  0.03714047  0.08258714  0.83323978    -0.01600
Br2417     Br  0.98965138  0.15380319  0.72931498    -0.01600
Br2418     Br  0.99121879  0.17240074  0.79775061    -0.01600
C2419       C  0.94299482  0.02862811  0.89989888    -0.02700
C2420       C  0.95444257  0.04594229  0.88171824     0.07000
C2421       C  0.96349609  0.03888281  0.85366844    -0.02800
C2422       C  0.96519749  0.01460334  0.84651042    -0.02800
C2423       C  0.95643607  0.99708900  0.86639247     0.07100
C2424       C  0.94343276  0.00436141  0.89170507    -0.03000
Br2425     Br  0.92638288  0.98128143  0.91545918    -0.01500
Br2426     Br  0.92759545  0.03740624  0.93675339    -0.01600
Br2427     Br  0.97873319  0.00538336  0.80866417    -0.01600
Br2428     Br  0.97236089  0.06249595  0.82407080    -0.01600
C2429       C  0.11546097  0.13910760  0.58057180    -0.02700
C2430       C  0.09170512  0.14559012  0.58582759     0.07000
C2431       C  0.08215084  0.16556850  0.57056694    -0.02800
C2432       C  0.09701303  0.18066533  0.55415100    -0.02800
C2433       C  0.12076388  0.17415645  0.54834132     0.07100
C2434       C  0.12967376  0.15285705  0.56078843    -0.03000
Br2435     Br  0.16166094  0.14343078  0.55225656    -0.01500
Br2436     Br  0.12813368  0.11100123  0.59938509    -0.01600
Br2437     Br  0.08430866  0.21145805  0.54289761    -0.01600
Br2438     Br  0.04895976  0.17464719  0.57382260    -0.01600
C2439       C  0.06278080  0.20038157  0.95443099    -0.02700
C2440       C  0.08570787  0.19058498  0.95078176     0.07000
C2441       C  0.08767991  0.16756391  0.93820151    -0.02800
C2442       C  0.06738821  0.15541454  0.92772314    -0.02800
C2443       C  0.04462797  0.16524843  0.93147517     0.07100
C2444       C  0.04246716  0.18743039  0.94575129    -0.03000
Br2445     Br  0.01148817  0.19934283  0.95568975    -0.01500
Br2446     Br  0.05859997  0.23194691  0.97045448    -0.01600
Br2447     Br  0.07102132  0.12549677  0.90725547    -0.01600
Br2448     Br  0.11774294  0.15125160  0.93749317    -0.01600
C2449       C  0.25297561  0.22427039  0.97429372    -0.02700
C2450       C  0.23476724  0.21474044  0.99259590     0.07000
C2451       C  0.24030924  0.20219778  0.52034400    -0.02800
C2452       C  0.26400707  0.20339275  0.53071059    -0.02800
C2453       C  0.28150514  0.21506137  0.51350249     0.07100
C2454       C  0.27649491  0.22496691  0.98468642    -0.03000
Br2455     Br  0.30152410  0.23584112  0.95860221    -0.01500
Br2456     Br  0.24589941  0.23639852  0.93473142    -0.01600
Br2457     Br  0.27243503  0.19013318  0.56911147    -0.01600
Br2458     Br  0.21687192  0.18575771  0.54411071    -0.01600
C2459       C  0.08619010  0.20678764  0.66758337    -0.02700
C2460       C  0.07064220  0.19247684  0.68485392     0.07000
C2461       C  0.06629964  0.19914119  0.71489457    -0.02800
C2462       C  0.07731455  0.21953292  0.72718803    -0.02800
C2463       C  0.09365031  0.23291690  0.71008458     0.07100
C2464       C  0.09711088  0.22705366  0.67983948    -0.03000
Br2465     Br  0.11637901  0.24743898  0.65457565    -0.01500
Br2466     Br  0.09559142  0.19732521  0.62832278    -0.01600
Br2467     Br  0.07030294  0.22881614  0.76766299    -0.01600
Br2468     Br  0.04606529  0.18004828  0.74007095    -0.01600
C2469       C  0.15304558  0.22938585  0.86620324    -0.02700
C2470       C  0.16692116  0.24462356  0.88443899     0.07000
C2471       C  0.17479571  0.26653175  0.87221493    -0.02800
C2472       C  0.16565340  0.27485635  0.84488469    -0.02800
C2473       C  0.15198341  0.25977895  0.82681548     0.07100
C2474       C  0.14640410  0.23670759  0.83706673    -0.03000
Br2475     Br  0.12864713  0.21568850  0.81151516    -0.01500
Br2476     Br  0.14219192  0.19883936  0.88056537    -0.01600
Br2477     Br  0.17112239  0.30735788  0.83272706    -0.01600
Br2478     Br  0.20009989  0.28408347  0.89109593    -0.01600
C2479       C  0.18471193  0.27176255  0.62378717    -0.02700
C2480       C  0.16952275  0.28948449  0.63494606     0.07000
C2481       C  0.15547981  0.30278833  0.61464745    -0.02800
C2482       C  0.15514976  0.29696791  0.58414545    -0.02800
C2483       C  0.16836983  0.27759387  0.57369785     0.07100
C2484       C  0.18422192  0.26592369  0.59319739    -0.03000
Br2485     Br  0.20460254  0.24133370  0.57848914    -0.01500
Br2486     Br  0.20624876  0.25547309  0.65044339    -0.01600
Br2487     Br  0.13663438  0.31564333  0.55622275    -0.01600
Br2488     Br  0.13486597  0.32767924  0.62811070    -0.01600
C2489       C  0.36605051  0.28287061  0.89185364    -0.02700
C2490       C  0.34305381  0.28856141  0.88232840     0.07000
C2491       C  0.32531191  0.29288559  0.90358325    -0.02800
C2492       C  0.33021951  0.29039639  0.93441062    -0.02800
C2493       C  0.35269051  0.28200639  0.94419166     0.07100
C2494       C  0.37102699  0.27966375  0.92240988    -0.03000
Br2495     Br  0.40366863  0.27287502  0.93257756    -0.01500
Br2496     Br  0.39119395  0.28009605  0.86254798    -0.01600
Br2497     Br  0.30638363  0.30062507  0.96250842    -0.01600
Br2498     Br  0.29397287  0.30126213  0.89031894    -0.01600
C2499       C  0.35873116  0.23198830  0.65039916    -0.02700
C2500       C  0.33953675  0.24060645  0.63321125     0.07000
C2501       C  0.32228156  0.25489993  0.64695986    -0.02800
C2502       C  0.32537064  0.26241896  0.67669714    -0.02800
C2503       C  0.34567524  0.25537059  0.69290285     0.07100
C2504       C  0.36180231  0.23939597  0.68004772    -0.03000
Br2505     Br  0.38828635  0.22749315  0.70315836    -0.01500
Br2506     Br  0.38192133  0.21102116  0.63364172    -0.01600
Br2507     Br  0.30260567  0.28373890  0.69416899    -0.01600
Br2508     Br  0.29418820  0.26374305  0.62503839    -0.01600
C2509       C  0.26610355  0.32580845  0.74920195    -0.02700
C2510       C  0.27393438  0.31125172  0.77320559     0.07000
C2511       C  0.25733317  0.29622184  0.78784534    -0.02800
C2512       C  0.23395486  0.29440713  0.77737212    -0.02800
C2513       C  0.22619768  0.30854564  0.75307533     0.07100
C2514       C  0.24240366  0.32427554  0.73906015    -0.03000
Br2515     Br  0.23297408  0.34151915  0.70350272    -0.01500
Br2516     Br  0.28784046  0.34690685  0.72873686    -0.01600
Br2517     Br  0.21310394  0.27152556  0.79621747    -0.01600
Br2518     Br  0.26612027  0.27804217  0.82308947    -0.01600
C2519       C  0.77149209  0.74618637  0.75011042    -0.02700
C2520       C  0.78178846  0.72770153  0.76769331     0.07000
C2521       C  0.76681633  0.70921027  0.77851051    -0.02800
C2522       C  0.74229049  0.70908591  0.77151616    -0.02800
C2523       C  0.73265214  0.72673390  0.75252167     0.07100
C2524       C  0.74765383  0.74483192  0.74126745    -0.03000
Br2525     Br  0.73564873  0.76818807  0.71305669    -0.01500
Br2526     Br  0.78860987  0.77497615  0.73917579    -0.01600
Br2527     Br  0.72148127  0.68614253  0.79026391    -0.01600
Br2528     Br  0.77896193  0.68570511  0.80612560    -0.01600
C2529       C  0.90327823  0.83137106  0.78588606    -0.02700
C2530       C  0.91334990  0.80854872  0.79021308     0.07000
C2531       C  0.93620575  0.80683401  0.80289485    -0.02800
C2532       C  0.94791020  0.82741492  0.81329770    -0.02800
C2533       C  0.93678609  0.84990863  0.81162719     0.07100
C2534       C  0.91509002  0.85192590  0.79592911    -0.03000
Br2535     Br  0.90033598  0.88250895  0.78883588    -0.01500
Br2536     Br  0.87284952  0.83497984  0.76641996    -0.01600
Br2537     Br  0.97985916  0.82478823  0.82845764    -0.01600
Br2538     Br  0.95110328  0.77627518  0.80827217    -0.01600
C2539       C  0.67647226  0.76055816  0.59921301    -0.02700
C2540       C  0.65333876  0.76039600  0.58742988     0.07000
C2541       C  0.63441208  0.75148503  0.60463469    -0.02800
C2542       C  0.63824026  0.74496035  0.63451426    -0.02800
C2543       C  0.66139608  0.74500332  0.64638426     0.07100
C2544       C  0.68060517  0.75166580  0.62816174    -0.03000
Br2545     Br  0.71248103  0.74764278  0.64235560    -0.01500
Br2546     Br  0.70209550  0.77506210  0.57710681    -0.01600
Br2547     Br  0.61127222  0.73834791  0.65954152    -0.01600
Br2548     Br  0.60327244  0.74789026  0.58718645    -0.01600
C2549       C  0.65511301  0.81008976  0.87347017    -0.02700
C2550       C  0.66994641  0.79675252  0.89291421     0.07000
C2551       C  0.68338302  0.77802481  0.88041897    -0.02800
C2552       C  0.67869348  0.77019681  0.85124109    -0.02800
C2553       C  0.65988373  0.78015694  0.83506014     0.07100
C2554       C  0.64853785  0.80057980  0.84571470    -0.03000
Br2555     Br  0.62346861  0.81507436  0.82278493    -0.01500
Br2556     Br  0.64632197  0.84256554  0.88196559    -0.01600
Br2557     Br  0.69804025  0.74597604  0.83306162    -0.01600
Br2558     Br  0.70992063  0.76454223  0.90110980    -0.01600
C2559       C  0.82979361  0.77383194  0.63994568    -0.02700
C2560       C  0.84248220  0.79306018  0.62696539     0.07000
C2561       C  0.85675084  0.80733811  0.64570888    -0.02800
C2562       C  0.86321840  0.79881793  0.67416298    -0.02800
C2563       C  0.85195117  0.77859776  0.68630475     0.07100
C2564       C  0.83415944  0.76696718  0.66979094    -0.03000
Br2565     Br  0.81697726  0.74050787  0.68711178    -0.01500
Br2566     Br  0.80530154  0.75779798  0.61758646    -0.01600
Br2567     Br  0.88900521  0.81369838  0.69525196    -0.01600
Br2568     Br  0.86572602  0.83938440  0.63454801    -0.01600
C2569       C  0.83319455  0.76701664  0.91769215    -0.02700
C2570       C  0.84991177  0.75597197  0.93646172     0.07000
C2571       C  0.86350232  0.73684620  0.92583386    -0.02800
C2572       C  0.86093649  0.72921916  0.89618216    -0.02800
C2573       C  0.84585194  0.74181206  0.87656356     0.07100
C2574       C  0.83088941  0.75967181  0.88791762    -0.03000
Br2575     Br  0.80700032  0.77400447  0.86267871    -0.01500
Br2576     Br  0.81543619  0.79403553  0.93140069    -0.01600
Br2577     Br  0.87897529  0.70224915  0.88269856    -0.01600
Br2578     Br  0.88747753  0.72269164  0.95098223    -0.01600
C2579       C  0.76776197  0.79216205  0.49602170    -0.02700
C2580       C  0.77872009  0.80931356  0.51493350     0.07000
C2581       C  0.76442305  0.82790775  0.52647360    -0.02800
C2582       C  0.73992326  0.82895060  0.51964866    -0.02800
C2583       C  0.73110088  0.81294604  0.00178108     0.07100
C2584       C  0.74519632  0.79362855  0.99259962    -0.03000
Br2585     Br  0.73146850  0.76721401  0.97106045    -0.01500
Br2586     Br  0.78626588  0.76437462  0.98713025    -0.01600
Br2587     Br  0.71976727  0.85206837  0.53847191    -0.01600
Br2588     Br  0.77716662  0.85033309  0.55469600    -0.01600
C2589       C  0.89057786  0.88721297  0.96746499    -0.02700
C2590       C  0.87961696  0.86597766  0.95795361     0.07000
C2591       C  0.87875210  0.86084139  0.92725283    -0.02800
C2592       C  0.89153925  0.87489022  0.90677429    -0.02800
C2593       C  0.90631328  0.89334673  0.91716878     0.07100
C2594       C  0.90453013  0.90047745  0.94719204    -0.03000
Br2595     Br  0.92235762  0.92750142  0.96082865    -0.01500
Br2596     Br  0.89072746  0.89397331  0.51119960    -0.01600
Br2597     Br  0.89064557  0.86676319  0.86513885    -0.01600
Br2598     Br  0.86171636  0.83325740  0.91354248    -0.01600
C2599       C  0.95473484  0.84976708  0.60385926    -0.02700
C2600       C  0.96907770  0.86457819  0.58569308     0.07000
C2601       C  0.96486265  0.86574139  0.55465111    -0.02800
C2602       C  0.94542504  0.85365332  0.54220272    -0.02800
C2603       C  0.92999372  0.84029413  0.56069667     0.07100
C2604       C  0.93554512  0.83724878  0.59116992    -0.03000
Br2605     Br  0.91855250  0.81392458  0.61449010    -0.01500
Br2606     Br  0.96085370  0.84709449  0.64616866    -0.01600
Br2607     Br  0.94061278  0.85477890  0.49949604    -0.01600
Br2608     Br  0.98652884  0.88292951  0.52883320    -0.01600
C2609       C  0.56404015  0.85474041  0.97325195    -0.02700
C2610       C  0.58001967  0.84197754  0.95532831     0.07000
C2611       C  0.57469169  0.83827132  0.92495102    -0.02800
C2612       C  0.55504309  0.84967850  0.91170676    -0.02800
C2613       C  0.54016107  0.86408110  0.92922790     0.07100
C2614       C  0.54419007  0.86573133  0.96025826    -0.03000
Br2615     Br  0.52161784  0.88184259  0.98535904    -0.01500
Br2616     Br  0.56855619  0.85609304  0.01597109    -0.01600
Br2617     Br  0.54878654  0.84580282  0.86965925    -0.01600
Br2618     Br  0.59297386  0.81582294  0.90245961    -0.01600
C2619       C  0.40503203  0.19123736  0.83625597    -0.02700
C2620       C  0.42817367  0.18661323  0.82614511     0.07000
C2621       C  0.43831972  0.20182464  0.80449723    -0.02800
C2622       C  0.42549200  0.22148814  0.79294569    -0.02800
C2623       C  0.40247711  0.22677019  0.80386305     0.07100
C2624       C  0.39253706  0.21142770  0.82602670    -0.03000
Br2625     Br  0.36226559  0.21814153  0.84443605    -0.01500
Br2626     Br  0.38996157  0.16949721  0.86391378    -0.01600
Br2627     Br  0.43941871  0.24003533  0.76094397    -0.01600
Br2628     Br  0.46981894  0.19529118  0.79038314    -0.01600
C2629       C  0.41136877  0.18866327  0.95541470    -0.02700
C2630       C  0.38902402  0.18073809  0.96586205     0.07000
C2631       C  0.38094264  0.15765816  0.95859244    -0.02800
C2632       C  0.39497704  0.14279021  0.94050607    -0.02800
C2633       C  0.41685825  0.15113271  0.92945531     0.07100
C2634       C  0.42511301  0.17405143  0.93743956    -0.03000
Br2635     Br  0.45577470  0.18635820  0.92476117    -0.01500
Br2636     Br  0.42502506  0.21902506  0.96710113    -0.01600
Br2637     Br  0.38539945  0.11041435  0.93316637    -0.01600
Br2638     Br  0.35063339  0.14649907  0.97284052    -0.01600
C2639       C  0.46203182  0.02226469  0.85341869    -0.02700
C2640       C  0.45510624  0.03939344  0.87455614     0.07000
C2641       C  0.44645412  0.03184808  0.90268991    -0.02800
C2642       C  0.44674433  0.00748872  0.91053176    -0.02800
C2643       C  0.45475004  0.99055047  0.88981921     0.07100
C2644       C  0.46174967  0.99797432  0.86101049    -0.03000
Br2645     Br  0.47184611  0.97488809  0.83216947    -0.01500
Br2646     Br  0.47225959  0.03204386  0.81395153    -0.01600
Br2647     Br  0.43882936  0.99759266  0.95073468    -0.01600
Br2648     Br  0.43585920  0.05482492  0.93135655    -0.01600
C2649       C  0.57048942  0.82673666  0.70462416    -0.02700
C2650       C  0.58035658  0.84992900  0.70712730     0.07000
C2651       C  0.60233932  0.85283299  0.72204745    -0.02800
C2652       C  0.61492620  0.83270982  0.73203791    -0.02800
C2653       C  0.60546665  0.80970526  0.72803308     0.07100
C2654       C  0.58317085  0.80680969  0.71466989    -0.03000
Br2655     Br  0.57097347  0.77527315  0.70713228    -0.01500
Br2656     Br  0.53952269  0.82137248  0.68731244    -0.01600
Br2657     Br  0.64566983  0.83669670  0.75042027    -0.01600
Br2658     Br  0.61659145  0.88385801  0.72760661    -0.01600
C2659       C  0.60476392  0.90001448  0.56722969    -0.02700
C2660       C  0.60681597  0.89436464  0.59787930     0.07000
C2661       C  0.62493922  0.87884122  0.60754572    -0.02800
C2662       C  0.63817919  0.86618565  0.58632734    -0.02800
C2663       C  0.63417006  0.87004845  0.55566179     0.07100
C2664       C  0.61906494  0.88844285  0.54625456    -0.03000
Br2665     Br  0.61534052  0.89501035  0.50412279    -0.01500
Br2666     Br  0.58029761  0.92123634  0.55353432    -0.01600
Br2667     Br  0.65923808  0.84101795  0.59885121    -0.01600
Br2668     Br  0.62920921  0.87186506  0.64940209    -0.01600
C2669       C  0.49911866  0.94576783  0.51861511    -0.02700
C2670       C  0.48274547  0.92951755  0.50656030     0.07000
C2671       C  0.47475254  0.91013906  0.52417702    -0.02800
C2672       C  0.48489281  0.90558027  0.55217151    -0.02800
C2673       C  0.50118597  0.92189415  0.56444805     0.07100
C2674       C  0.50825384  0.94208053  0.54755016    -0.03000
Br2675     Br  0.53248492  0.96328657  0.56212667    -0.01500
Br2676     Br  0.50839690  0.97354094  0.49570066    -0.01600
Br2677     Br  0.47712123  0.87588056  0.57227959    -0.01600
Br2678     Br  0.44266550  0.90045594  0.01229418    -0.01600
C2679       C  0.53917139  0.92432477  0.77626679    -0.02700
C2680       C  0.52178916  0.92961759  0.75423656     0.07000
C2681       C  0.49758625  0.93023020  0.76285468    -0.02800
C2682       C  0.49081360  0.92248707  0.79140199    -0.02800
C2683       C  0.50801592  0.91736263  0.81306448     0.07100
C2684       C  0.53217206  0.91877730  0.80576293    -0.03000
Br2685     Br  0.55551845  0.91104343  0.83583604    -0.01500
Br2686     Br  0.57253492  0.92352190  0.76699719    -0.01600
Br2687     Br  0.45772694  0.91821222  0.80048045    -0.01600
Br2688     Br  0.47309977  0.94281767  0.73677814    -0.01600
C2689       C  0.46957031  0.19035902  0.58592715    -0.02700
C2690       C  0.46724613  0.16627784  0.59471034     0.07000
C2691       C  0.44514755  0.15477001  0.59134815    -0.02800
C2692       C  0.42587156  0.16689705  0.57847157    -0.02800
C2693       C  0.42768843  0.19134641  0.57126303     0.07100
C2694       C  0.44975034  0.20303765  0.57508047    -0.03000
Br2695     Br  0.45318939  0.23649533  0.56580221    -0.01500
Br2696     Br  0.50029888  0.20556796  0.58640267    -0.01600
Br2697     Br  0.39793245  0.14901342  0.56760648    -0.01600
Br2698     Br  0.44075169  0.12243078  0.60529843    -0.01600
C2699       C  0.50296828  0.10416530  0.50954813    -0.02700
C2700       C  0.52717638  0.10318941  0.51789684     0.07000
C2701       C  0.54541955  0.10431532  0.99508719    -0.02800
C2702       C  0.53905887  0.10642106  0.96457952    -0.02800
C2703       C  0.51508758  0.10788757  0.95623886     0.07100
C2704       C  0.49751524  0.10496818  0.97827933    -0.03000
Br2705     Br  0.46472272  0.10326910  0.96686693    -0.01500
Br2706     Br  0.47761423  0.10214515  0.53863532    -0.01600
Br2707     Br  0.56309304  0.10703462  0.93403448    -0.01600
Br2708     Br  0.57832184  0.09999381  0.00538233    -0.01600
C2709       C  0.51003597  0.09497351  0.72436559    -0.02700
C2710       C  0.49668325  0.11065734  0.70660763     0.07000
C2711       C  0.47451931  0.11848863  0.71667901    -0.02800
C2712       C  0.46746177  0.11385785  0.74637026    -0.02800
C2713       C  0.48256485  0.10087928  0.76585808     0.07100
C2714       C  0.50315067  0.09015613  0.75398823    -0.03000
Br2715     Br  0.52201050  0.06857296  0.77786709    -0.01500
Br2716     Br  0.53694234  0.07902771  0.70725205    -0.01600
Br2717     Br  0.43789265  0.12698129  0.75993789    -0.01600
Br2718     Br  0.45410359  0.13586596  0.68972160    -0.01600
C2719       C  0.52944288  0.00434788  0.62830900    -0.02700
C2720       C  0.54990581  0.99375814  0.64124070     0.07000
C2721       C  0.57074474  0.00769502  0.64441287    -0.02800
C2722       C  0.57043589  0.03218416  0.63707358    -0.02800
C2723       C  0.54987718  0.04247834  0.62489127     0.07100
C2724       C  0.52982719  0.02822562  0.61927253    -0.03000
Br2725     Br  0.50233345  0.04143939  0.59902018    -0.01500
Br2726     Br  0.49987360  0.98723251  0.62300770    -0.01600
Br2727     Br  0.59731078  0.05209752  0.64641440    -0.01600
Br2728     Br  0.59938421  0.99426475  0.66079722    -0.01600
C2729       C  0.94407603  0.70707171  0.55683236    -0.02700
C2730       C  0.93290790  0.68444462  0.55698271     0.07000
C2731       C  0.91013194  0.68217783  0.54397290    -0.02800
C2732       C  0.89746404  0.70265401  0.53535646    -0.02800
C2733       C  0.90793047  0.72545581  0.53769410     0.07100
C2734       C  0.93177054  0.72740110  0.54681536    -0.03000
Br2735     Br  0.94734213  0.75807865  0.54765534    -0.01500
Br2736     Br  0.97641675  0.71056626  0.57038007    -0.01600
Br2737     Br  0.86531450  0.69915266  0.52096715    -0.01600
Br2738     Br  0.89461066  0.65157176  0.54045356    -0.01600
C2739       C  0.87912392  0.67981178  0.67571818    -0.02700
C2740       C  0.87688039  0.67187873  0.70546101     0.07000
C2741       C  0.88270164  0.64804296  0.71245572    -0.02800
C2742       C  0.89632814  0.63477735  0.69203161    -0.02800
C2743       C  0.90233911  0.64472798  0.66407187     0.07100
C2744       C  0.89128740  0.66596203  0.65493732    -0.03000
Br2745     Br  0.89406420  0.67727694  0.61468481    -0.01500
Br2746     Br  0.86708048  0.71048721  0.66382474    -0.01600
Br2747     Br  0.90713495  0.60341556  0.70222735    -0.01600
Br2748     Br  0.87347277  0.63411424  0.75022758    -0.01600
C2749       C  0.94292543  0.50238001  0.62657957    -0.02700
C2750       C  0.95924795  0.49384849  0.64790317     0.07000
C2751       C  0.97592524  0.50949243  0.66050936    -0.02800
C2752       C  0.97784346  0.53291315  0.64988914    -0.02800
C2753       C  0.96137418  0.54183997  0.62872140     0.07100
C2754       C  0.94364438  0.52648303  0.61747529    -0.03000
Br2755     Br  0.92233778  0.53740003  0.58661066    -0.01500
Br2756     Br  0.92130687  0.48057330  0.60753397    -0.01600
Br2757     Br  0.00464687  0.55135175  0.66321576    -0.01600
Br2758     Br  0.99675614  0.49861071  0.69226725    -0.01600
C2759       C  0.06620177  0.37728834  0.66090454    -0.02700
C2760       C  0.04382520  0.36604454  0.66277094     0.07000
C2761       C  0.04244145  0.34161156  0.67002610    -0.02800
C2762       C  0.06302180  0.32926676  0.67826826    -0.02800
C2763       C  0.08466346  0.34162869  0.68160548     0.07100
C2764       C  0.08662627  0.36521289  0.67043744    -0.03000
Br2765     Br  0.11656978  0.38210380  0.66945377    -0.01500
Br2766     Br  0.06910824  0.40935910  0.64512245    -0.01600
Br2767     Br  0.06171442  0.29512859  0.68377921    -0.01600
Br2768     Br  0.01234264  0.32519225  0.67140572    -0.01600
C2769       C  0.96023982  0.65830759  0.80977022    -0.02700
C2770       C  0.97032052  0.66493555  0.83741056     0.07000
C2771       C  0.96173114  0.68558879  0.85175478    -0.02800
C2772       C  0.94242290  0.69834329  0.83944889    -0.02800
C2773       C  0.93130730  0.69036862  0.81313111     0.07100
C2774       C  0.94104392  0.67101265  0.79772362    -0.03000
Br2775     Br  0.92951351  0.66324192  0.75843801    -0.01500
Br2776     Br  0.97394158  0.63331805  0.78635247    -0.01600
Br2777     Br  0.93229062  0.72764175  0.85735028    -0.01600
Br2778     Br  0.97613910  0.69660927  0.88825530    -0.01600
C2779       C  0.04358763  0.61444913  0.73823272    -0.02700
C2780       C  0.02900583  0.60131320  0.75827028     0.07000
C2781       C  0.00758732  0.59141665  0.74747212    -0.02800
C2782       C  0.99920013  0.59773074  0.71892506    -0.02800
C2783       C  0.01315156  0.61200809  0.69987218     0.07100
C2784       C  0.03580389  0.61925427  0.70892146    -0.03000
Br2785     Br  0.05583118  0.63631748  0.68103966    -0.01500
Br2786     Br  0.07364182  0.62729291  0.75038020    -0.01600
Br2787     Br  0.96812627  0.58763994  0.70638643    -0.01600
Br2788     Br  0.98983539  0.56863394  0.77122780    -0.01600
C2789       C  0.97773804  0.61568309  0.95920699    -0.02700
C2790       C  0.99843518  0.60491576  0.94859846     0.07000
C2791       C  0.01112237  0.58923522  0.96725716    -0.02800
C2792       C  0.00490639  0.58630957  0.49887004    -0.02800
C2793       C  0.98374944  0.59622276  0.51009669     0.07100
C2794       C  0.97057822  0.61195670  0.98895362    -0.03000
Br2795     Br  0.94103477  0.62521906  0.00169227    -0.01500
Br2796     Br  0.95931561  0.63572473  0.93283609    -0.01600
Br2797     Br  0.02708280  0.57032244  0.52505666    -0.01600
Br2798     Br  0.03658495  0.57074874  0.95119995    -0.01600
C2799       C  0.04141523  0.41214992  0.52248480    -0.02700
C2800       C  0.03257605  0.43091433  0.50422477     0.07000
C2801       C  0.01658264  0.44740668  0.51691409    -0.02800
C2802       C  0.00776979  0.44373286  0.54608916    -0.02800
C2803       C  0.01439528  0.42336470  0.56242016     0.07100
C2804       C  0.03175137  0.40804686  0.55105530    -0.03000
Br2805     Br  0.04183529  0.38092445  0.57463914    -0.01500
Br2806     Br  0.06622217  0.39119392  0.50910622    -0.01600
Br2807     Br  0.98598987  0.46608661  0.56349730    -0.01600
Br2808     Br  0.01111384  0.47632618  0.99589916    -0.01600
C2809       C  0.99662113  0.39800380  0.79370729    -0.02700
C2810       C  0.99550599  0.41707204  0.81445627     0.07000
C2811       C  0.98522459  0.43895070  0.80481158    -0.02800
C2812       C  0.97797314  0.44191921  0.77470122    -0.02800
C2813       C  0.98177931  0.42369999  0.75390995     0.07100
C2814       C  0.99105788  0.40181566  0.76349574    -0.03000
Br2815     Br  0.99667642  0.37691354  0.73469166    -0.01500
Br2816     Br  0.00412543  0.36568010  0.80584250    -0.01600
Br2817     Br  0.96321809  0.47104442  0.76145895    -0.01600
Br2818     Br  0.98099446  0.46533770  0.83170509    -0.01600
C2819       C  0.06797068  0.50935590  0.90448087    -0.02700
C2820       C  0.05794035  0.49168253  0.88618619     0.07000
C2821       C  0.05181039  0.49722276  0.85642226    -0.02800
C2822       C  0.05157645  0.52102430  0.84679649    -0.02800
C2823       C  0.05993822  0.53900614  0.86591073     0.07100
C2824       C  0.07061286  0.53268738  0.89332923    -0.03000
Br2825     Br  0.08892189  0.55561385  0.91544934    -0.01500
Br2826     Br  0.07545017  0.50254641  0.94572098    -0.01600
Br2827     Br  0.04014002  0.52889470  0.80728554    -0.01600
Br2828     Br  0.04451843  0.47209856  0.82868192    -0.01600
C2829       C  0.12050714  0.31941495  0.94330038    -0.02700
C2830       C  0.11126039  0.30568413  0.96722668     0.07000
C2831       C  0.08878277  0.31149257  0.97911698    -0.02800
C2832       C  0.07538681  0.33007863  0.96626044    -0.02800
C2833       C  0.08507635  0.34405401  0.94300051     0.07100
C2834       C  0.10732468  0.33819744  0.93117616    -0.03000
Br2835     Br  0.11861316  0.35399469  0.89567135    -0.01500
Br2836     Br  0.15085520  0.31253163  0.92556340    -0.01600
Br2837     Br  0.04323718  0.33675790  0.48205782    -0.01600
Br2838     Br  0.07746820  0.29658980  0.51565468    -0.01600
C2839       C  0.09203434  0.39583770  0.80500479    -0.02700
C2840       C  0.10233967  0.39873237  0.83327429     0.07000
C2841       C  0.12656531  0.39343274  0.83696164    -0.02800
C2842       C  0.13798802  0.37898892  0.81563646    -0.02800
C2843       C  0.12531460  0.37128644  0.79035973     0.07100
C2844       C  0.10357211  0.38220251  0.78348634    -0.03000
Br2845     Br  0.08904189  0.37791572  0.74515800    -0.01500
Br2846     Br  0.06161531  0.40978604  0.79649896    -0.01600
Br2847     Br  0.17044371  0.36982416  0.82080713    -0.01600
Br2848     Br  0.14375207  0.40595244  0.87057112    -0.01600
C2849       C  0.13302074  0.85423512  0.67975083    -0.02700
C2850       C  0.13644533  0.86360542  0.70837666     0.07000
C2851       C  0.13031281  0.88756007  0.71377153    -0.02800
C2852       C  0.11679541  0.90016745  0.69229051    -0.02800
C2853       C  0.10805801  0.88805373  0.66707760     0.07100
C2854       C  0.11744341  0.86554073  0.66014443    -0.03000
Br2855     Br  0.10708404  0.84828872  0.62583093    -0.01500
Br2856     Br  0.14766280  0.82441857  0.66886881    -0.01600
Br2857     Br  0.10999606  0.93333872  0.69766144    -0.01600
Br2858     Br  0.13844730  0.90236819  0.75112672    -0.01600
C2859       C  0.06941476  0.85869050  0.79758312    -0.02700
C2860       C  0.08218875  0.84271128  0.81572667     0.07000
C2861       C  0.07408852  0.83757063  0.84488209    -0.02800
C2862       C  0.05459433  0.85010805  0.85676242    -0.02800
C2863       C  0.04316705  0.86778301  0.83939081     0.07100
C2864       C  0.04976653  0.87073682  0.80921259    -0.03000
Br2865     Br  0.03006443  0.88879480  0.78263024    -0.01500
Br2866     Br  0.07858776  0.86381851  0.75638431    -0.01600
Br2867     Br  0.04321828  0.84248092  0.89630445    -0.01600
Br2868     Br  0.08879790  0.81242739  0.86762865    -0.01600
C2869       C  0.08346578  0.72991202  0.80872377    -0.02700
C2870       C  0.10702862  0.72788489  0.79824542     0.07000
C2871       C  0.11700147  0.70502716  0.79479692    -0.02800
C2872       C  0.10409869  0.68458240  0.80311821    -0.02800
C2873       C  0.08145479  0.68681815  0.81645336     0.07100
C2874       C  0.07072608  0.70945120  0.81754564    -0.03000
Br2875     Br  0.03781643  0.71238228  0.82899415    -0.01500
Br2876     Br  0.06855669  0.76065223  0.81265531    -0.01600
Br2877     Br  0.11815570  0.65381320  0.79557884    -0.01600
Br2878     Br  0.14832550  0.70116328  0.77788614    -0.01600
C2879       C  0.37967940  0.88678126  0.80444137    -0.02700
C2880       C  0.37210052  0.86323058  0.80994731     0.07000
C2881       C  0.37405094  0.85351319  0.83883274    -0.02800
C2882       C  0.38876163  0.86455657  0.85966804    -0.02800
C2883       C  0.39942268  0.88657158  0.85262109     0.07100
C2884       C  0.39243962  0.89895793  0.82668735    -0.03000
Br2885     Br  0.40059254  0.93200421  0.82182120    -0.01500
Br2886     Br  0.37555104  0.90094181  0.76549080    -0.01600
Br2887     Br  0.39627326  0.84803264  0.89621630    -0.01600
Br2888     Br  0.35912803  0.82342575  0.84822990    -0.01600
C2889       C  0.47079825  0.85685849  0.70493078    -0.02700
C2890       C  0.46830176  0.86914940  0.67748999     0.07000
C2891       C  0.44543040  0.87150337  0.66490677    -0.02800
C2892       C  0.42585322  0.85960365  0.67779040    -0.02800
C2893       C  0.42866259  0.84576650  0.70416930     0.07100
C2894       C  0.45125961  0.84503829  0.71804415    -0.03000
Br2895     Br  0.45557370  0.82968191  0.75654545    -0.01500
Br2896     Br  0.50014173  0.85920014  0.72701823    -0.01600
Br2897     Br  0.39540279  0.86231329  0.65822733    -0.01600
Br2898     Br  0.44017512  0.89187576  0.63058317    -0.01600
C2899       C  0.26369135  0.82185556  0.73452258    -0.02700
C2900       C  0.28064730  0.81440250  0.75581846     0.07000
C2901       C  0.27388315  0.81198911  0.78610543    -0.02800
C2902       C  0.24989375  0.81385962  0.79417404    -0.02800
C2903       C  0.23278971  0.81907668  0.77228718     0.07100
C2904       C  0.24006285  0.82556151  0.74332787    -0.03000
Br2905     Br  0.21794731  0.84087114  0.71670674    -0.01500
Br2906     Br  0.27189108  0.82448576  0.69282686    -0.01600
Br2907     Br  0.24038539  0.81079177  0.83540578    -0.01600
Br2908     Br  0.29742914  0.80684475  0.81669358    -0.01600
C2909       C  0.06780698  0.82813735  0.55295305    -0.02700
C2910       C  0.08008666  0.84960358  0.55893289     0.07000
C2911       C  0.10444547  0.85130407  0.55125230    -0.02800
C2912       C  0.11678497  0.83099477  0.54178349    -0.02800
C2913       C  0.10496619  0.80892433  0.53898194     0.07100
C2914       C  0.08017885  0.80789886  0.54303611    -0.03000
Br2915     Br  0.06310029  0.77846570  0.53700318    -0.01500
Br2916     Br  0.03381683  0.82632775  0.55776637    -0.01600
Br2917     Br  0.15026752  0.83367250  0.53283814    -0.01600
Br2918     Br  0.12230119  0.88055345  0.55605328    -0.01600
C2919       C  0.12397744  0.65578929  0.91217910    -0.02700
C2920       C  0.10571933  0.64064115  0.92272534     0.07000
C2921       C  0.10355113  0.63684406  0.95389367    -0.02800
C2922       C  0.11775616  0.64987339  0.97390786    -0.02800
C2923       C  0.13192872  0.66871387  0.96306255     0.07100
C2924       C  0.13603175  0.67073572  0.93218947    -0.03000
Br2925     Br  0.15706721  0.69497381  0.91718141    -0.01500
Br2926     Br  0.13134205  0.65808959  0.87036116    -0.01600
Br2927     Br  0.11633038  0.64333065  0.01630945    -0.01600
Br2928     Br  0.07998438  0.61526862  0.96950276    -0.01600
C2929       C  0.06529224  0.68251644  0.54385683    -0.02700
C2930       C  0.07926134  0.69714391  0.56226816     0.07000
C2931       C  0.07117655  0.70242307  0.59122422    -0.02800
C2932       C  0.05180189  0.68972225  0.60353268    -0.02800
C2933       C  0.04015102  0.67215282  0.58644671     0.07100
C2934       C  0.04641534  0.66935461  0.55611461    -0.03000
Br2935     Br  0.02853889  0.64835798  0.53060566    -0.01500
Br2936     Br  0.07012714  0.68273220  0.50112255    -0.01600
Br2937     Br  0.04164902  0.69620674  0.64376650    -0.01600
Br2938     Br  0.08422865  0.72941239  0.61179313    -0.01600
C2939       C  0.18558257  0.77620739  0.89194634    -0.02700
C2940       C  0.17249827  0.79573126  0.88049995     0.07000
C2941       C  0.15926564  0.80992400  0.90057568    -0.02800
C2942       C  0.15604745  0.80218487  0.93025712    -0.02800
C2943       C  0.16682313  0.78110352  0.94032349     0.07100
C2944       C  0.18222484  0.76860717  0.92156600    -0.03000
Br2945     Br  0.19718311  0.73984023  0.93568344    -0.01500
Br2946     Br  0.20849795  0.75967519  0.86766023    -0.01600
Br2947     Br  0.13463735  0.81896704  0.95623370    -0.01600
Br2948     Br  0.14446962  0.83942477  0.88830374    -0.01600
C2949       C  0.15205392  0.72831981  0.65019867    -0.02700
C2950       C  0.16859706  0.73983258  0.63114265     0.07000
C2951       C  0.18483151  0.75612051  0.64374378    -0.02800
C2952       C  0.18231514  0.76324164  0.67369334    -0.02800
C2953       C  0.16322034  0.75479055  0.69098203     0.07100
C2954       C  0.14866987  0.73658154  0.67958044    -0.03000
Br2955     Br  0.12387300  0.72314207  0.70420999    -0.01500
Br2956     Br  0.13427027  0.70099791  0.63697445    -0.01600
Br2957     Br  0.20447677  0.78527718  0.69064728    -0.01600
Br2958     Br  0.21127566  0.76789240  0.62048898    -0.01600
C2959       C  0.43421454  0.80166967  0.97127187    -0.02700
C2960       C  0.41103671  0.80285853  0.98267373     0.07000
C2961       C  0.40026057  0.82519735  0.98631964    -0.02800
C2962       C  0.41047973  0.84573376  0.97357235    -0.02800
C2963       C  0.43303285  0.84444607  0.95965629     0.07100
C2964       C  0.44556009  0.82254993  0.96092073    -0.03000
Br2965     Br  0.47842901  0.82070870  0.94897246    -0.01500
Br2966     Br  0.44998263  0.77134830  0.96805384    -0.01600
Br2967     Br  0.39150756  0.87432847  0.97270205    -0.01600
Br2968     Br  0.36808655  0.82753155  0.50614808    -0.01600
C2969       C  0.33256740  0.74082905  0.87465043    -0.02700
C2970       C  0.35193933  0.74177515  0.89426354     0.07000
C2971       C  0.37466626  0.74716420  0.88335608    -0.02800
C2972       C  0.37786402  0.75307132  0.85311595    -0.02800
C2973       C  0.35807526  0.75465597  0.83374267     0.07100
C2974       C  0.33561611  0.74678061  0.84420895    -0.03000
Br2975     Br  0.30893368  0.74324402  0.81761504    -0.01500
Br2976     Br  0.30190603  0.73157381  0.88984959    -0.01600
Br2977     Br  0.40982180  0.75697132  0.83818040    -0.01600
Br2978     Br  0.40145694  0.74711045  0.91028359    -0.01600
C2979       C  0.37414191  0.78134028  0.60224860    -0.02700
C2980       C  0.35542295  0.77092420  0.58622918     0.07000
C2981       C  0.33276810  0.76903042  0.59922394    -0.02800
C2982       C  0.32890432  0.77737729  0.62843937    -0.02800
C2983       C  0.34775321  0.78765721  0.64466807     0.07100
C2984       C  0.37051493  0.78900882  0.63162142    -0.03000
Br2985     Br  0.39770366  0.79823481  0.65493383    -0.01500
Br2986     Br  0.40488352  0.78540013  0.58377836    -0.01600
Br2987     Br  0.29796067  0.77400481  0.64626685    -0.01600
Br2988     Br  0.30740150  0.75380312  0.57761075    -0.01600
C2989       C  0.24544771  0.70334648  0.52258861    -0.02700
C2990       C  0.23150263  0.72367581  0.51539855     0.07000
C2991       C  0.24249182  0.74270457  0.99849500    -0.02800
C2992       C  0.26597238  0.74055931  0.98837962    -0.02800
C2993       C  0.28042405  0.72181099  0.99847978     0.07100
C2994       C  0.26978033  0.70256220  0.51476152    -0.03000
Br2995     Br  0.28947830  0.67680598  0.52883350    -0.01500
Br2996     Br  0.23240682  0.67694554  0.54504396    -0.01600
Br2997     Br  0.27836728  0.76338685  0.95953231    -0.01600
Br2998     Br  0.22677008  0.77237919  0.98858129    -0.01600
C2999       C  0.55797065  0.69931019  0.71561922    -0.02700
C3000       C  0.58170819  0.69505336  0.70635189     0.07000
C3001       C  0.58549300  0.67889299  0.68251203    -0.02800
C3002       C  0.56624199  0.66687166  0.66918039    -0.02800
C3003       C  0.54270653  0.67150042  0.67813085     0.07100
C3004       C  0.53880282  0.68755610  0.70165515    -0.03000
Br3005     Br  0.50733138  0.69092354  0.71786824    -0.01500
Br3006     Br  0.55080195  0.71970670  0.74909100    -0.01600
Br3007     Br  0.57261413  0.64304445  0.63934985    -0.01600
Br3008     Br  0.61685910  0.67299728  0.66666726    -0.01600
C3009       C  0.43856047  0.71245130  0.69417167    -0.02700
C3010       C  0.42953362  0.68896573  0.69928331     0.07000
C3011       C  0.40883729  0.68613770  0.71716248    -0.02800
C3012       C  0.39720222  0.70621918  0.72852783    -0.02800
C3013       C  0.40579199  0.72921852  0.72226389     0.07100
C3014       C  0.42689922  0.73228520  0.70614290    -0.03000
Br3015     Br  0.43959959  0.76394778  0.69970203    -0.01500
Br3016     Br  0.46659418  0.71892489  0.67036047    -0.01600
Br3017     Br  0.36968190  0.70232258  0.75393819    -0.01600
Br3018     Br  0.39462439  0.65535759  0.72535305    -0.01600
C3019       C  0.38636127  0.65169560  0.60591507    -0.02700
C3020       C  0.40535996  0.63741023  0.59609857     0.07000
C3021       C  0.40718607  0.63189163  0.56557221    -0.02800
C3022       C  0.39270258  0.64357515  0.54463080    -0.02800
C3023       C  0.37660168  0.66098251  0.55425470     0.07100
C3024       C  0.37228414  0.66385198  0.58489617    -0.03000
Br3025     Br  0.34978249  0.68751040  0.59763516    -0.01500
Br3026     Br  0.38132351  0.65735846  0.64774228    -0.01600
Br3027     Br  0.39755090  0.63855779  0.50248579    -0.01600
Br3028     Br  0.43056514  0.60956176  0.55233922    -0.01600
C3029       C  0.40408172  0.32698660  0.54484261    -0.02700
C3030       C  0.40273113  0.30577664  0.56166140     0.07000
C3031       C  0.41488562  0.30367301  0.58895900    -0.02800
C3032       C  0.42852094  0.32278175  0.59955526    -0.02800
C3033       C  0.43016245  0.34416228  0.58265209     0.07100
C3034       C  0.41758123  0.34623366  0.55533674    -0.03000
Br3035     Br  0.41856050  0.37514861  0.53162786    -0.01500
Br3036     Br  0.38804074  0.32936723  0.50674542    -0.01600
Br3037     Br  0.44296070  0.31990121  0.63862806    -0.01600
Br3038     Br  0.41161249  0.27495810  0.61270098    -0.01600
C3039       C  0.38651497  0.37831351  0.66894635    -0.02700
C3040       C  0.40457021  0.39326230  0.67998905     0.07000
C3041       C  0.40634712  0.39696840  0.71091442    -0.02800
C3042       C  0.39251207  0.38328443  0.73089942    -0.02800
C3043       C  0.37714991  0.36545271  0.71986139     0.07100
C3044       C  0.37303563  0.36417097  0.68884918    -0.03000
Br3045     Br  0.34975764  0.34213091  0.67378402    -0.01500
Br3046     Br  0.38143059  0.37598737  0.62648021    -0.01600
Br3047     Br  0.39693417  0.38725680  0.77328373    -0.01600
Br3048     Br  0.42902542  0.41968248  0.72566347    -0.01600
C3049       C  0.44214931  0.50340978  0.64327128    -0.02700
C3050       C  0.46045647  0.49458784  0.62502010     0.07000
C3051       C  0.47915619  0.50974004  0.61644043    -0.02800
C3052       C  0.48178846  0.53200937  0.62966592    -0.02800
C3053       C  0.46326443  0.54150311  0.64741432     0.07100
C3054       C  0.44330073  0.52701887  0.65395581    -0.03000
Br3055     Br  0.41913095  0.53801507  0.68098498    -0.01500
Br3056     Br  0.41614320  0.48298662  0.65488556    -0.01600
Br3057     Br  0.51238970  0.54730446  0.62486683    -0.01600
Br3058     Br  0.50128376  0.50016997  0.58566081    -0.01600
C3059       C  0.60471854  0.68515180  0.97084355    -0.02700
C3060       C  0.58226187  0.68672598  0.95645651     0.07000
C3061       C  0.57085511  0.70924874  0.95525636    -0.02800
C3062       C  0.58275353  0.72992814  0.96476533    -0.02800
C3063       C  0.60592793  0.72843445  0.97608290     0.07100
C3064       C  0.61647691  0.70597782  0.98016694    -0.03000
Br3065     Br  0.64703966  0.70373603  0.99958763    -0.01500
Br3066     Br  0.62030832  0.65505838  0.97853167    -0.01600
Br3067     Br  0.56759245  0.76058300  0.96093832    -0.01600
Br3068     Br  0.53835502  0.71239283  0.94212952    -0.01600
C3069       C  0.60572451  0.63653275  0.81890956    -0.02700
C3070       C  0.60834042  0.64024963  0.84980532     0.07000
C3071       C  0.62583557  0.65623804  0.86003128    -0.02800
C3072       C  0.63757432  0.67133693  0.83966252    -0.02800
C3073       C  0.63296673  0.66937254  0.80896803     0.07100
C3074       C  0.61843955  0.65077582  0.79847083    -0.03000
Br3075     Br  0.61392499  0.64651656  0.75615654    -0.01500
Br3076     Br  0.58304735  0.61348873  0.80476982    -0.01600
Br3077     Br  0.65765888  0.69665402  0.85387088    -0.01600
Br3078     Br  0.63155064  0.65993040  0.90204509    -0.01600
C3079       C  0.44800977  0.66106360  0.91788962    -0.02700
C3080       C  0.46983599  0.66048004  0.93312153     0.07000
C3081       C  0.47160296  0.67075005  0.96161881    -0.02800
C3082       C  0.45194559  0.68232465  0.97428088    -0.02800
C3083       C  0.43078999  0.68524089  0.95758855     0.07100
C3084       C  0.42905195  0.67456453  0.92912988    -0.03000
Br3085     Br  0.40130819  0.67906431  0.90453453    -0.01500
Br3086     Br  0.44332089  0.64186623  0.88290442    -0.01600
Br3087     Br  0.45177850  0.69293625  0.51766626    -0.01600
Br3088     Br  0.50036134  0.66677915  0.98448957    -0.01600
C3089       C  0.51588912  0.58668985  0.52443220    -0.02700
C3090       C  0.53334046  0.60166980  0.51157961     0.07000
C3091       C  0.54254922  0.62082274  0.52842364    -0.02800
C3092       C  0.53256979  0.62640072  0.55618648    -0.02800
C3093       C  0.51523688  0.61143858  0.56897810     0.07100
C3094       C  0.50682504  0.59162357  0.55299243    -0.03000
Br3095     Br  0.48042031  0.57330382  0.56798699    -0.01500
Br3096     Br  0.49758698  0.56038413  0.00124317    -0.01600
Br3097     Br  0.54113670  0.65602324  0.57510314    -0.01600
Br3098     Br  0.56818027  0.64056050  0.51388610    -0.01600
C3099       C  0.48729008  0.62865221  0.80556397    -0.02700
C3100       C  0.50021005  0.61011774  0.81957783     0.07000
C3101       C  0.50474051  0.58895687  0.80362437    -0.02800
C3102       C  0.49778564  0.58712127  0.77346515    -0.02800
C3103       C  0.48521666  0.60577947  0.75968144     0.07100
C3104       C  0.47918328  0.62606096  0.77614841    -0.03000
Br3105     Br  0.46082712  0.65113310  0.75798575    -0.01500
Br3106     Br  0.48108961  0.65835231  0.82564144    -0.01600
Br3107     Br  0.50583024  0.55929972  0.75058575    -0.01600
Br3108     Br  0.52197936  0.56307991  0.82182872    -0.01600
C3109       C  0.41924486  0.36182009  0.84450335    -0.02700
C3110       C  0.42173649  0.34104636  0.82684832     0.07000
C3111       C  0.44485790  0.33243628  0.82137465    -0.02800
C3112       C  0.46486185  0.34622607  0.82852786    -0.02800
C3113       C  0.46243306  0.36797598  0.84403644     0.07100
C3114       C  0.43943569  0.37518450  0.85288131    -0.03000
Br3115     Br  0.43496811  0.40303321  0.87751943    -0.01500
Br3116     Br  0.38859696  0.37213090  0.85875007    -0.01600
Br3117     Br  0.49536315  0.33523788  0.81485531    -0.01600
Br3118     Br  0.44995241  0.30055131  0.80638029    -0.01600
C3119       C  0.50259025  0.44264881  0.72415654    -0.02700
C3120       C  0.51422203  0.42495788  0.70775923     0.07000
C3121       C  0.53468649  0.41419152  0.71938141    -0.02800
C3122       C  0.54264748  0.42000286  0.74824232    -0.02800
C3123       C  0.52862633  0.43467490  0.76676299     0.07100
C3124       C  0.50934349  0.44710535  0.75389041    -0.03000
Br3125     Br  0.49251255  0.47077707  0.77650187    -0.01500
Br3126     Br  0.47736372  0.46057150  0.70567045    -0.01600
Br3127     Br  0.57275589  0.40773866  0.76149327    -0.01600
Br3128     Br  0.55105149  0.39052612  0.69623920    -0.01600
C3129       C  0.48210451  0.44126149  0.96667668    -0.02700
C3130       C  0.49298127  0.41995618  0.95656715     0.07000
C3131       C  0.49846295  0.40192309  0.97811096    -0.02800
C3132       C  0.48050916  0.40554608  0.50417983    -0.02800
C3133       C  0.47907072  0.42815622  0.51702514     0.07100
C3134       C  0.47719613  0.44437451  0.99739007    -0.03000
Br3135     Br  0.46295406  0.47330508  0.01160306    -0.01500
Br3136     Br  0.47272397  0.46615949  0.93918192    -0.01600
Br3137     Br  0.48188046  0.37752923  0.52955720    -0.01600
Br3138     Br  0.51336230  0.37214840  0.96795452    -0.01600
C3139       C  0.56584870  0.50731355  0.86465565    -0.02700
C3140       C  0.55631503  0.48990620  0.88405792     0.07000
C3141       C  0.55133242  0.49559762  0.91395738    -0.02800
C3142       C  0.55305138  0.51929972  0.92339746    -0.02800
C3143       C  0.56057600  0.53716245  0.90325749     0.07100
C3144       C  0.56865264  0.53087345  0.87461146    -0.03000
Br3145     Br  0.58271716  0.55464865  0.84887823    -0.01500
Br3146     Br  0.57351976  0.49915625  0.82402544    -0.01600
Br3147     Br  0.54473154  0.52749515  0.96378667    -0.01600
Br3148     Br  0.54159028  0.47097959  0.94167868    -0.01600
C3149       C  0.58913583  0.19312789  0.55287883    -0.02700
C3150       C  0.57905036  0.19338331  0.58172526     0.07000
C3151       C  0.58341686  0.21277720  0.60096301    -0.02800
C3152       C  0.59769801  0.23178132  0.59123315    -0.02800
C3153       C  0.60822344  0.23109193  0.56277893     0.07100
C3154       C  0.60418247  0.21170781  0.54370903    -0.03000
Br3155     Br  0.61902177  0.21076333  0.50482485    -0.01500
Br3156     Br  0.58156611  0.16792187  0.52532801    -0.01600
Br3157     Br  0.60401467  0.25822437  0.61749456    -0.01600
Br3158     Br  0.57172550  0.21271179  0.64160858    -0.01600
C3159       C  0.59919230  0.34749956  0.96376644    -0.02700
C3160       C  0.62026882  0.35827800  0.97445805     0.07000
C3161       C  0.62549024  0.38209702  0.96651632    -0.02800
C3162       C  0.61040346  0.39458293  0.94667881    -0.02800
C3163       C  0.58979006  0.38347557  0.93562882     0.07100
C3164       C  0.58422155  0.35993569  0.94451495    -0.03000
Br3165     Br  0.55755392  0.34275531  0.92752792    -0.01500
Br3166     Br  0.58970024  0.31532358  0.97480724    -0.01600
Br3167     Br  0.61788111  0.42673288  0.93462924    -0.01600
Br3168     Br  0.65359812  0.39729997  0.98172741    -0.01600
C3169       C  0.56881295  0.37963524  0.60283993    -0.02700
C3170       C  0.54637000  0.36840161  0.60269055     0.07000
C3171       C  0.54464541  0.34439885  0.59388232    -0.02800
C3172       C  0.56483783  0.33225532  0.58358567    -0.02800
C3173       C  0.58708327  0.34393207  0.58202179     0.07100
C3174       C  0.58897021  0.36765988  0.59210728    -0.03000
Br3175     Br  0.61854158  0.38492114  0.58882527    -0.01500
Br3176     Br  0.57227921  0.41133969  0.61878248    -0.01600
Br3177     Br  0.56161128  0.29944453  0.57151697    -0.01600
Br3178     Br  0.51441295  0.32820468  0.59439954    -0.01600
C3179       C  0.76114410  0.31936929  0.97844628    -0.02700
C3180       C  0.77951145  0.31602181  0.99940505     0.07000
C3181       C  0.77269712  0.31665598  0.53109687    -0.02800
C3182       C  0.74909380  0.31771558  0.54081334    -0.02800
C3183       C  0.73069778  0.32078007  0.51993288     0.07100
C3184       C  0.73730518  0.31980790  0.98808342    -0.03000
Br3185     Br  0.71202377  0.32287975  0.95934633    -0.01500
Br3186     Br  0.76856346  0.32194567  0.93655445    -0.01600
Br3187     Br  0.74174117  0.31432112  0.58280676    -0.01600
Br3188     Br  0.79764946  0.31130402  0.55980157    -0.01600
C3189       C  0.92915178  0.23473356  0.96452577     0.06900
C3190       C  0.90922147  0.23085400  0.98285029     0.07000
C3191       C  0.90236412  0.20732529  0.98963309    -0.02800
C3192       C  0.91356889  0.18788027  0.97586695    -0.02800
C3193       C  0.93168463  0.19182701  0.95429774     0.07100
C3194       C  0.93898937  0.21573596  0.94841810    -0.03000
Br3195     Br  0.95971582  0.22407526  0.91542155    -0.01500
Br3196     Br  0.94383634  0.26585214  0.96194231    -0.01600
Br3197     Br  0.90309662  0.15620634  0.98706782    -0.01600
Br3198     Br  0.87905803  0.20173957  0.02031100    -0.01600
C3199       C  0.86702383  0.37570096  0.57768894    -0.02700
C3200       C  0.87358109  0.37541633  0.54748840     0.07000
C3201       C  0.89176356  0.39079224  0.53763865    -0.02800
C3202       C  0.90678740  0.40168219  0.55864929    -0.02800
C3203       C  0.90312095  0.39758855  0.58944073     0.07100
C3204       C  0.88248029  0.38550858  0.59899349    -0.03000
Br3205     Br  0.87741749  0.37865201  0.64077771    -0.01500
Br3206     Br  0.83613117  0.36425981  0.58875089    -0.01600
Br3207     Br  0.93378243  0.42000519  0.54536190    -0.01600
Br3208     Br  0.89676153  0.39568202  0.49541325    -0.01600
C3209       C  0.93209396  0.34853098  0.92190099    -0.02700
C3210       C  0.92989770  0.34400729  0.95297824     0.07000
C3211       C  0.94811292  0.35198267  0.97249961    -0.02800
C3212       C  0.96777033  0.36453094  0.96109061    -0.02800
C3213       C  0.96999563  0.36854302  0.93016251     0.07100
C3214       C  0.95217651  0.36056610  0.91060441    -0.03000
Br3215     Br  0.95466330  0.36754103  0.86835259    -0.01500
Br3216     Br  0.90809691  0.33815224  0.89420165    -0.01600
Br3217     Br  0.99167852  0.37663515  0.98800755    -0.01600
Br3218     Br  0.94617108  0.34728469  0.01540593    -0.01600
C3219       C  0.68216300  0.26508045  0.67848050    -0.02700
C3220       C  0.66587730  0.27778695  0.69606332     0.07000
C3221       C  0.65620098  0.29907376  0.68489134    -0.02800
C3222       C  0.66134789  0.30678089  0.65551567    -0.02800
C3223       C  0.67506423  0.29232211  0.63633410     0.07100
C3224       C  0.68651264  0.27212208  0.64862683    -0.03000
Br3225     Br  0.70872425  0.25429870  0.62485863    -0.01500
Br3226     Br  0.69787986  0.23745420  0.69481285    -0.01600
Br3227     Br  0.64900764  0.33700793  0.64232953    -0.01600
Br3228     Br  0.63556519  0.31752603  0.71003563    -0.01600
C3229       C  0.68470139  0.24186221  0.90402912    -0.02700
C3230       C  0.66460709  0.24062682  0.88558713     0.07000
C3231       C  0.64203245  0.24391988  0.89785855    -0.02800
C3232       C  0.63933935  0.24814820  0.92855354    -0.02800
C3233       C  0.65956376  0.25229889  0.94697696     0.07100
C3234       C  0.68240992  0.24829300  0.93443749    -0.03000
Br3235     Br  0.71111155  0.25252167  0.95734798    -0.01500
Br3236     Br  0.71544557  0.23606005  0.88677368    -0.01600
Br3237     Br  0.60731539  0.24721062  0.94406418    -0.01600
Br3238     Br  0.61461007  0.24453351  0.87183298    -0.01600
C3239       C  0.63403274  0.17606782  0.68510471    -0.02700
C3240       C  0.63276564  0.17101110  0.71597908     0.07000
C3241       C  0.62164519  0.14968430  0.72568066    -0.02800
C3242       C  0.60908948  0.13560285  0.70501328    -0.02800
C3243       C  0.60797834  0.14247270  0.67479596     0.07100
C3244       C  0.62253819  0.16120190  0.66455882    -0.03000
Br3245     Br  0.62586581  0.16715264  0.62233668    -0.01500
Br3246     Br  0.64937407  0.20461126  0.67087745    -0.01600
Br3247     Br  0.59236278  0.10757620  0.71799500    -0.01600
Br3248     Br  0.62038407  0.14139939  0.76762017    -0.01600
C3249       C  0.54632810  0.16861566  0.81225150    -0.02700
C3250       C  0.54409161  0.16469734  0.84314145     0.07000
C3251       C  0.56239899  0.17139840  0.86259210    -0.02800
C3252       C  0.58343072  0.18127978  0.85107783    -0.02800
C3253       C  0.58481508  0.18765712  0.82043360     0.07100
C3254       C  0.56619391  0.18080146  0.80093455    -0.03000
Br3255     Br  0.56842743  0.18580168  0.75813954    -0.01500
Br3256     Br  0.52258907  0.15622536  0.78538390    -0.01600
Br3257     Br  0.61034998  0.18388366  0.87736838    -0.01600
Br3258     Br  0.55829921  0.16747074  0.90516399    -0.01600
C3259       C  0.61179633  0.31663283  0.83341294    -0.02700
C3260       C  0.60530366  0.30614114  0.80596978     0.07000
C3261       C  0.58632606  0.31596896  0.78941800    -0.02800
C3262       C  0.57373898  0.33569389  0.80052771    -0.02800
C3263       C  0.57978035  0.34558977  0.82836149     0.07100
C3264       C  0.59936497  0.33641060  0.84415346    -0.03000
Br3265     Br  0.61102194  0.35218666  0.87914430    -0.01500
Br3266     Br  0.63743380  0.30394210  0.85732209    -0.01600
Br3267     Br  0.54870163  0.34960202  0.77712872    -0.01600
Br3268     Br  0.57826887  0.30343352  0.75068956    -0.01600
C3269       C  0.83483720  0.24388187  0.59205225    -0.02700
C3270       C  0.84504487  0.26650490  0.58635481     0.07000
C3271       C  0.84854139  0.28238955  0.61019334    -0.02800
C3272       C  0.84156680  0.27597784  0.63907689    -0.02800
C3273       C  0.83550535  0.25205555  0.64545832     0.07100
C3274       C  0.83120337  0.23626426  0.62171598    -0.03000
Br3275     Br  0.81958855  0.20444301  0.62965635    -0.01500
Br3276     Br  0.82701216  0.22246175  0.55998836    -0.01600
Br3277     Br  0.84038384  0.30076747  0.66884717    -0.01600
Br3278     Br  0.86410632  0.31270193  0.60456101    -0.01600
C3279       C  0.87364064  0.27709131  0.88409701    -0.02700
C3280       C  0.85034110  0.28091980  0.89391748     0.07000
C3281       C  0.83119861  0.27523078  0.87534931    -0.02800
C3282       C  0.83546750  0.26730808  0.84613535    -0.02800
C3283       C  0.85896293  0.26592688  0.83519534     0.07100
C3284       C  0.87808853  0.27060456  0.85448250    -0.03000
Br3285     Br  0.91043025  0.26913642  0.84049709    -0.01500
Br3286     Br  0.89928470  0.27832652  0.91219225    -0.01600
Br3287     Br  0.80904678  0.25659341  0.82252993    -0.01600
Br3288     Br  0.79932949  0.27716997  0.89051746    -0.01600
C3289       C  0.77056926  0.20349592  0.77065771    -0.02700
C3290       C  0.77994239  0.22245186  0.75361952     0.07000
C3291       C  0.76552656  0.24179125  0.74564599    -0.02800
C3292       C  0.74243074  0.24330329  0.75659769    -0.02800
C3293       C  0.73247252  0.22415457  0.77335705     0.07100
C3294       C  0.74672854  0.20414229  0.78021489    -0.03000
Br3295     Br  0.73480934  0.17892989  0.80563472    -0.01500
Br3296     Br  0.79088337  0.17757730  0.78245432    -0.01600
Br3297     Br  0.72590625  0.27286872  0.74920399    -0.01600
Br3298     Br  0.77752732  0.26660015  0.71925556    -0.01600
C3299       C  0.87355869  0.17163276  0.82664524    -0.02700
C3300       C  0.87947316  0.16631299  0.79688967     0.07000
C3301       C  0.89689091  0.14917281  0.79081452    -0.02800
C3302       C  0.91014231  0.13928684  0.81434362    -0.02800
C3303       C  0.90627304  0.14697377  0.84378065     0.07100
C3304       C  0.88739093  0.16244686  0.85014237    -0.03000
Br3305     Br  0.88234553  0.17327393  0.89046168    -0.01500
Br3306     Br  0.84865681  0.19414924  0.83462808    -0.01600
Br3307     Br  0.93561833  0.11760037  0.80597452    -0.01600
Br3308     Br  0.90475602  0.14194231  0.74989950    -0.01600
C3309       C  0.91945592  0.17852210  0.66421630    -0.02700
C3310       C  0.92438527  0.19737189  0.68419322     0.07000
C3311       C  0.94828499  0.20514078  0.68712823    -0.02800
C3312       C  0.96672712  0.19227493  0.67357562    -0.02800
C3313       C  0.96180980  0.17062092  0.65877824     0.07100
C3314       C  0.93800626  0.16449720  0.65297997    -0.03000
Br3315     Br  0.93044606  0.13742297  0.62855794    -0.01500
Br3316     Br  0.88762096  0.17280188  0.64971161    -0.01600
Br3317     Br  0.99885110  0.20430984  0.67699661    -0.01600
Br3318     Br  0.95705109  0.23300485  0.70999258    -0.01600
C3319       C  0.91162677  0.30375017  0.68760692    -0.02700
C3320       C  0.90495961  0.30448819  0.71786575     0.07000
C3321       C  0.91149846  0.32400616  0.73558717    -0.02800
C3322       C  0.92392973  0.34329823  0.72268618    -0.02800
C3323       C  0.92974012  0.34308875  0.69188731     0.07100
C3324       C  0.92341088  0.32320400  0.67441187    -0.03000
Br3325     Br  0.92877675  0.32320210  0.63173442    -0.01500
Br3326     Br  0.90533273  0.27552676  0.66451551    -0.01600
Br3327     Br  0.93302047  0.36970578  0.74756746    -0.01600
Br3328     Br  0.90301534  0.32435937  0.77740826    -0.01600
loop_ 
_geom_bond_atom_site_label_1 
_geom_bond_atom_site_label_2 
_geom_bond_distance 
_geom_bond_site_symmetry_2 
_ccdc_geom_bond_type 
Fe1          O17   2.053       .  S
Fe1           O7   2.061       .  S
Fe1          O14   2.066       .  S
Fe1           O6   2.027       .  S
Fe1          O12   1.934       .  S
Fe2           O5   2.052       .  S
Fe2           O9   2.073       .  S
Fe2          O13   2.051       .  S
Fe2          O18   2.058       .  S
Fe2          O12   1.933       .  S
Fe3          O21   2.089       .  S
Fe3           O8   2.063       .  S
Fe3          O15   2.053       .  S
Fe3           O4   2.093       .  S
Fe3          O12   1.947       .  S
O4           C11   1.271       .  A
O5           C19   1.267       .  A
O6           C11   1.262       .  A
O7           C10   1.266       .  A
O8           C20   1.269       .  A
O9           C22   1.267       .  A
C10          O15   1.271       .  A
C10        C1609   1.474       .  S
C11        C1626   1.471       .  S
O13          C16   1.269       .  A
O14          C16   1.269       .  A
C16        C1619   1.473       .  S
O17          C22   1.265       .  A
O18          C20   1.269       .  A
C19          O21   1.271       .  A
C19        C1646   1.504       .  S
C20        C1636   1.460       .  S
C22        C1656   1.469       .  S
Fe23         O39   2.069       .  S
Fe23         O29   2.043       .  S
Fe23         O36   2.057       .  S
Fe23         O28   2.056       .  S
Fe23         O34   1.957       .  S
Fe24         O27   2.062       .  S
Fe24         O31   2.071       .  S
Fe24         O35   2.093       .  S
Fe24         O40   2.052       .  S
Fe24         O34   1.948       .  S
Fe25         O43   2.072       .  S
Fe25         O30   2.084       .  S
Fe25         O37   2.111       .  S
Fe25         O26   2.082       .  S
Fe25         O34   1.961       .  S
O26          C33   1.267       .  A
O27          C41   1.271       .  A
O28          C33   1.259       .  A
O29          C32   1.271       .  A
O30          C42   1.273       .  A
O31          C44   1.264       .  A
C32          O37   1.281       .  A
C32        C1566   1.480       .  S
C33        C1629   1.488       .  S
O35          C38   1.278       .  A
O36          C38   1.270       .  A
C38        C1556   1.479       .  S
O39          C44   1.263       .  A
O40          C42   1.269       .  A
C41          O43   1.272       .  A
C41        C1589   1.483       .  S
C42        C1576   1.482       .  S
C44        C1596   1.491       .  S
Fe45         O51   2.063       .  S
Fe45         O58   2.085       .  S
Fe45         O50   2.035       .  S
Fe45       O1725   2.040       .  S
Fe45         O56   1.984       .  S
Fe46         O49   2.076       .  S
Fe46         O53   2.056       .  S
Fe46       O1721   2.065       .  S
Fe46       O1726   2.050   1_554  S
Fe46       O1720   1.970   1_554  S
Fe47         O52   2.072       .  S
Fe47         O59   2.073       .  S
Fe47         O48   2.069       .  S
Fe47       O1729   2.074       .  S
Fe47         O56   1.991       .  S
O48          C55   1.270       .  A
O49          C63   1.273       .  A
O50          C55   1.263       .  A
O51          C54   1.267       .  A
O52          C64   1.270       .  A
O53          C66   1.268       .  A
C54          O59   1.267       .  A
C54        C1516   1.477       .  S
C55        C1616   1.458       .  S
O56       Fe1710   1.965       .  S
O57       Fe1710   2.062       .  S
O57          C60   1.265       .  A
O58          C60   1.272       .  A
C60        C1526   1.494       .  S
O61       Fe1709   2.041   1_554  S
O61          C66   1.263       .  A
O62       Fe1710   2.046       .  S
O62          C64   1.264       .  A
C63          O65   1.271       .  A
C63        C1536   1.480       .  S
C64        C1546   1.485       .  S
O65       Fe1711   2.078   1_554  S
C66        C1606   1.476       .  S
Fe67         O73   2.086       .  S
Fe67         O80   2.085       .  S
Fe67         O72   2.052       .  S
Fe67       O1747   2.082   1_554  S
Fe67         O78   1.940       .  S
Fe68         O79   2.042       .  S
Fe68         O84   2.107       .  S
Fe68       O1735   2.031   1_554  S
Fe68       O1739   2.054   1_554  S
Fe68         O78   1.915       .  S
Fe69         O87   2.118       .  S
Fe69         O74   2.067       .  S
Fe69         O81   2.077       .  S
Fe69         O70   2.097       .  S
Fe69         O78   1.967       .  S
O70          C77   1.274       .  A
O71       Fe1732   2.030       .  S
O71          C85   1.261       .  A
O72          C77   1.268       .  A
O73          C76   1.277       .  A
O74          C86   1.270       .  A
O75       Fe1732   2.080       .  S
O75          C88   1.265       .  A
C76          O81   1.275       .  A
C76        C1519   1.480       .  S
C77        C1559   1.489       .  S
O79          C82   1.269       .  A
O80          C82   1.275       .  A
C82        C1489   1.463       .  S
O83       Fe1731   2.085       .  S
O83          C88   1.270       .  A
O84          C86   1.273       .  A
C85        O1751   1.278       .  A
C85        C1496   1.474       .  S
C86        C1509   1.497       .  S
O87        C1749   1.271   1_554  A
C88        C1569   1.509       .  S
Fe89        O105   2.080       .  S
Fe89         O95   2.089       .  S
Fe89        O102   2.098       .  S
Fe89         O94   2.040       .  S
Fe89        O100   1.932       .  S
Fe90         O93   2.028       .  S
Fe90         O97   2.047       .  S
Fe90        O101   2.042       .  S
Fe90        O106   2.113       .  S
Fe90        O100   1.917       .  S
Fe91        O109   2.107       .  S
Fe91         O96   2.060       .  S
Fe91        O103   2.051       .  S
Fe91         O92   2.089       .  S
Fe91        O100   1.962       .  S
O92          C99   1.273       .  A
O93         C107   1.251       .  A
O94          C99   1.268       .  A
O95          C98   1.276       .  A
O96         C108   1.268       .  A
O97         C110   1.262       .  A
C98         O103   1.268       .  A
C98        C1476   1.468       .  S
C99        C1459   1.479       .  S
O101        C104   1.271       .  A
O102        C104   1.278       .  A
C104       C1449   1.497       .  S
O105        C110   1.268       .  A
O106        C108   1.277       .  A
C107        O109   1.272       .  A
C107       C1499   1.471       .  S
C108       C1599   1.486       .  S
C110       C1466   1.503       .  S
Fe111       O127   2.070       .  S
Fe111       O117   2.050       .  S
Fe111       O124   2.051       .  S
Fe111       O116   2.050       .  S
Fe111       O122   1.979       .  S
Fe112       O115   2.044       .  S
Fe112       O119   2.059       .  S
Fe112       O123   2.067       .  S
Fe112       O128   2.059       .  S
Fe112       O122   1.967       .  S
Fe113       O131   2.071       .  S
Fe113       O118   2.063       .  S
Fe113       O125   2.063       .  S
Fe113       O114   2.064       .  S
Fe113       O122   1.987       .  S
O114        C121   1.268       .  A
O115        C129   1.268       .  A
O116        C121   1.268       .  A
O117        C120   1.265       .  A
O118        C130   1.266       .  A
O119        C132   1.269       .  A
C120        O125   1.265       .  A
C120       C1479   1.465       .  S
C121       C3090   1.480       .  S
O123        C126   1.267       .  A
O124        C126   1.263       .  A
C126       C1416   1.469       .  S
O127        C132   1.269       .  A
O128        C130   1.265       .  A
C129        O131   1.268       .  A
C129       C1406   1.474       .  S
C130       C1396   1.498       .  S
C132       C1436   1.490       .  S
Fe133       O149   2.063       .  S
Fe133       O139   2.062       .  S
Fe133       O146   2.061       .  S
Fe133       O138   2.041       .  S
Fe133       O144   1.966       .  S
Fe134       O137   2.058       .  S
Fe134       O141   2.090       .  S
Fe134       O145   2.061       .  S
Fe134       O150   2.076       .  S
Fe134       O144   1.966       .  S
Fe135       O153   2.072       .  S
Fe135       O140   2.065       .  S
Fe135       O147   2.063       .  S
Fe135       O136   2.086       .  S
Fe135       O144   1.985       .  S
O136        C143   1.269       .  A
O137        C151   1.270       .  A
O138        C143   1.266       .  A
O139        C142   1.268       .  A
O140        C152   1.267       .  A
O141        C154   1.270       .  A
C142        O147   1.268       .  A
C142       C1469   1.469       .  S
C143       C1386   1.486       .  S
O145        C148   1.271       .  A
O146        C148   1.268       .  A
C148       C1456   1.463       .  S
O149        C154   1.266       .  A
O150        C152   1.271       .  A
C151        O153   1.272       .  A
C151       C1369   1.479       .  S
C152       C1376   1.476       .  S
C154       C1506   1.499       .  S
Fe155       O171   2.053       .  S
Fe155       O161   2.049       .  S
Fe155       O168   2.074       .  S
Fe155       O160   2.055       .  S
Fe155       O166   1.963       .  S
Fe156       O159   2.053       .  S
Fe156       O163   2.091       .  S
Fe156       O167   2.054       .  S
Fe156       O172   2.062       .  S
Fe156       O166   1.958       .  S
Fe157       O175   2.087       .  S
Fe157       O162   2.068       .  S
Fe157       O169   2.084       .  S
Fe157       O158   2.095       .  S
Fe157       O166   1.966       .  S
O158        C165   1.274       .  A
O159        C173   1.265       .  A
O160        C165   1.262       .  A
O161        C164   1.267       .  A
O162        C174   1.266       .  A
O163        C176   1.273       .  A
C164        O169   1.272       .  A
C164       C1439   1.470       .  S
C165       C1389   1.496       .  S
O167        C170   1.268       .  A
O168        C170   1.271       .  A
C170       C1429   1.474       .  S
O171        C176   1.263       .  A
O172        C174   1.269       .  A
C173        O175   1.277       .  A
C173       C1346   1.506       .  S
C174       C1356   1.474       .  S
C176       C1339   1.493       .  S
Fe177       O193   2.040       .  S
Fe177       O183   2.084       .  S
Fe177       O182   2.034       .  S
Fe177      O1854   2.079       .  S
Fe177       O188   1.949       .  S
Fe178       O189   2.055       .  S
Fe178       O194   2.058       .  S
Fe178      O1845   2.059   1_554  S
Fe178      O1849   2.073       .  S
Fe178      O1852   1.958   1_554  S
Fe179       O197   2.083       .  S
Fe179       O191   2.058       .  S
Fe179       O180   2.104       .  S
Fe179      O1848   2.065       .  S
Fe179       O188   1.964       .  S
O180        C187   1.274       .  A
O181      Fe1842   2.053       .  S
O181        C195   1.268       .  A
O182        C187   1.262       .  A
O183        C186   1.273       .  A
O184      Fe1843   2.056   1_554  S
O184        C196   1.267       .  A
O185      Fe1842   2.071       .  S
O185        C198   1.266       .  A
C186        O191   1.269       .  A
C186       C1306   1.474       .  S
C187       C1329   1.486       .  S
O188      Fe1842   1.950       .  S
O189        C192   1.271       .  A
O190      Fe1841   2.075   1_554  S
O190        C192   1.272       .  A
C192       C1316   1.472       .  S
O193        C198   1.263       .  A
O194        C196   1.269       .  A
C195        O197   1.273       .  A
C195       C1419   1.482       .  S
C196       C1359   1.461       .  S
C198       C1296   1.472       .  S
Fe199       O215   2.053       .  S
Fe199       O205   2.061       .  S
Fe199       O204   2.052       .  S
Fe199      O1876   2.086   1_554  S
Fe199       O210   1.969       .  S
Fe200       O203   2.051   1_556  S
Fe200       O207   2.075   1_556  S
Fe200      O1875   2.038       .  S
Fe200      O1880   2.063       .  S
Fe200       O210   1.972   1_556  S
Fe201       O219   2.118       .  S
Fe201       O206   2.066       .  S
Fe201       O213   2.075       .  S
Fe201       O202   2.121       .  S
Fe201       O210   1.975       .  S
O202        C209   1.281       .  A
O203        C217   1.271       .  A
O204        C209   1.265       .  A
O205        C208   1.267       .  A
O206       C1882   1.263   1_554  A
O207        C220   1.266       .  A
C208        O213   1.267       .  A
C208       C1286   1.491       .  S
C209       C1326   1.517       .  S
O211      Fe1864   2.040       .  S
O211        C214   1.267       .  A
O212      Fe1863   2.087       .  S
O212        C214   1.274       .  A
C214       C1279   1.463       .  S
O215        C220   1.264       .  A
O216      Fe1864   2.063       .  S
O216        C218   1.265       .  A
C217        O219   1.286       .  A
C217       C1266   1.481       .  S
C218       O1870   1.262       .  A
C218       C1259   1.478       .  S
C220       C1249   1.488       .  S
Fe221       O237   2.085       .  S
Fe221       O227   2.055       .  S
Fe221       O234   2.050       .  S
Fe221       O226   2.080       .  S
Fe221       O232   1.952       .  S
Fe222       O225   2.063       .  S
Fe222       O229   2.059       .  S
Fe222       O233   2.070       .  S
Fe222       O238   2.055       .  S
Fe222       O232   1.939       .  S
Fe223       O241   2.061       .  S
Fe223       O228   2.083       .  S
Fe223       O235   2.085       .  S
Fe223       O224   2.058       .  S
Fe223       O232   1.963       .  S
O224        C231   1.271       .  A
O225        C239   1.271       .  A
O226        C231   1.273       .  A
O227        C230   1.267       .  A
O228        C240   1.270       .  A
O229        C242   1.271       .  A
C230        O235   1.271       .  A
C230       C1236   1.482       .  S
C231       C1319   1.479       .  S
O233        C236   1.267       .  A
O234        C236   1.266       .  A
C236       C1349   1.472       .  S
O237        C242   1.272       .  A
O238        C240   1.266       .  A
C239        O241   1.269       .  A
C239       C1216   1.462       .  S
C240       C1229   1.492       .  S
C242       C1309   1.496       .  S
Fe243       O259   2.077       .  S
Fe243       O249   2.066       .  S
Fe243       O256   2.068       .  S
Fe243       O248   2.049       .  S
Fe243       O254   1.974       .  S
Fe244       O247   2.040       .  S
Fe244       O251   2.071       .  S
Fe244       O255   2.053       .  S
Fe244       O260   2.064       .  S
Fe244       O254   1.976       .  S
Fe245       O263   2.068       .  S
Fe245       O250   2.087       .  S
Fe245       O257   2.069       .  S
Fe245       O246   2.065       .  S
Fe245       O254   1.994       .  S
O246        C253   1.268       .  A
O247        C261   1.268       .  A
O248        C253   1.268       .  A
O249        C252   1.269       .  A
O250        C262   1.273       .  A
O251        C264   1.270       .  A
C252        O257   1.266       .  A
C252       C1239   1.475       .  S
C253       C1276   1.487       .  S
O255        C258   1.263       .  A
O256        C258   1.268       .  A
C258       C1206   1.486       .  S
O259        C264   1.271       .  A
O260        C262   1.268       .  A
C261        O263   1.266       .  A
C261       C1186   1.477       .  S
C262       C1196   1.482       .  S
C264       C1289   1.483       .  S
Fe265       O281   2.040   1_455  S
Fe265       O271   2.077       .  S
Fe265       O278   2.096   1_455  S
Fe265       O270   2.043       .  S
Fe265       O276   1.973       .  S
Fe266       O269   2.059       .  S
Fe266       O273   2.074       .  S
Fe266       O277   2.041       .  S
Fe266       O282   2.071       .  S
Fe266       O276   1.955       .  S
Fe267       O285   2.083       .  S
Fe267       O272   2.070       .  S
Fe267       O279   2.061       .  S
Fe267       O268   2.069       .  S
Fe267       O276   1.980       .  S
O268        C275   1.267       .  A
O269        C283   1.265       .  A
O270        C275   1.264       .  A
O271        C274   1.273       .  A
O272        C284   1.268       .  A
O273        C286   1.269   1_455  A
C274        O279   1.270       .  A
C274       C2800   1.493       .  S
C275       C1156   1.471       .  S
O277        C280   1.265       .  A
O278        C280   1.272   1_655  A
C280       C1146   1.504   1_455  S
O281        C286   1.262       .  A
O282        C284   1.273       .  A
C283        O285   1.272       .  A
C283       C1169   1.478       .  S
C284       C1176   1.481       .  S
C286       C1549   1.468       .  S
Fe287       O303   2.088   1_455  S
Fe287       O293   2.046       .  S
Fe287       O300   2.055       .  S
Fe287       O292   2.074       .  S
Fe287       O298   1.954       .  S
Fe288       O291   2.091       .  S
Fe288       O295   2.072       .  S
Fe288       O299   2.086       .  S
Fe288       O304   2.061       .  S
Fe288       O298   1.957       .  S
Fe289       O307   2.053       .  S
Fe289       O294   2.095       .  S
Fe289       O301   2.090       .  S
Fe289       O290   2.053       .  S
Fe289       O298   1.959       .  S
O290        C297   1.267       .  A
O291        C305   1.274       .  A
O292        C297   1.273       .  A
O293        C296   1.265       .  A
O294        C306   1.274       .  A
O295        C308   1.270   1_455  A
C296        O301   1.270       .  A
C296       C1116   1.493       .  S
C297       C1159   1.473       .  S
O299        C302   1.274       .  A
O300        C302   1.266       .  A
C302       C1126   1.473   1_455  S
O303        C308   1.274       .  A
O304        C306   1.269       .  A
C305        O307   1.266       .  A
C305       C1209   1.494       .  S
C306       C1256   1.492       .  S
C308       C1106   1.492       .  S
Fe309       O325   2.067       .  S
Fe309       O315   2.030   1_455  S
Fe309       O322   2.044       .  S
Fe309       O314   2.062   1_455  S
Fe309       O320   1.967   1_455  S
Fe310       O313   2.059       .  S
Fe310       O317   2.062       .  S
Fe310       O321   2.066   1_655  S
Fe310       O326   2.066       .  S
Fe310       O320   1.965       .  S
Fe311       O329   2.076       .  S
Fe311       O316   2.066       .  S
Fe311       O323   2.076       .  S
Fe311       O312   2.073       .  S
Fe311       O320   1.986       .  S
O312        C319   1.270       .  A
O313        C327   1.266       .  A
O314        C319   1.267       .  A
O315        C318   1.263       .  A
O316        C328   1.271       .  A
O317        C330   1.272   1_655  A
C318        O323   1.269       .  A
C318       C1086   1.472       .  S
C319       C1149   1.475       .  S
O321        C324   1.265       .  A
O322        C324   1.263       .  A
C324       C1096   1.478       .  S
O325        C330   1.270       .  A
O326        C328   1.273       .  A
C327        O329   1.269       .  A
C327       C1539   1.477       .  S
C328       C1659   1.478       .  S
C330       C1139   1.467       .  S
Fe331       O347   2.054       .  S
Fe331       O337   2.067   1_455  S
Fe331       O344   2.064       .  S
Fe331       O336   2.041   1_455  S
Fe331       O342   1.957   1_455  S
Fe332       O335   2.066       .  S
Fe332       O339   2.079       .  S
Fe332       O343   2.075   1_655  S
Fe332       O348   2.078       .  S
Fe332       O342   1.956       .  S
Fe333       O351   2.092       .  S
Fe333       O338   2.068       .  S
Fe333       O345   2.077       .  S
Fe333       O334   2.086       .  S
Fe333       O342   1.963       .  S
O334        C341   1.269       .  A
O335        C349   1.267       .  A
O336        C341   1.264       .  A
O337        C340   1.269       .  A
O338        C350   1.272       .  A
O339        C352   1.272   1_655  A
C340        O345   1.275       .  A
C340       C1089   1.483       .  S
C341       C1129   1.482       .  S
O343        C346   1.268       .  A
O344        C346   1.267       .  A
C346       C1269   1.484       .  S
O347        C352   1.267       .  A
O348        C350   1.276       .  A
C349        O351   1.270       .  A
C349       C1079   1.485       .  S
C350       C1066   1.492       .  S
C352       C1119   1.472       .  S
Fe353       O369   2.056       .  S
Fe353       O359   2.080       .  S
Fe353       O366   2.071       .  S
Fe353       O358   2.032       .  S
Fe353       O364   1.932       .  S
Fe354       O357   2.048       .  S
Fe354       O361   2.101       .  S
Fe354       O365   2.057       .  S
Fe354       O370   2.076       .  S
Fe354       O364   1.937       .  S
Fe355       O373   2.068       .  S
Fe355       O360   2.077       .  S
Fe355       O367   2.074       .  S
Fe355       O356   2.105       .  S
Fe355       O364   1.950       .  S
O356        C363   1.276       .  A
O357        C371   1.267       .  A
O358        C363   1.265       .  A
O359        C362   1.267       .  A
O360        C372   1.273       .  A
O361        C374   1.275       .  A
C362        O367   1.269       .  A
C362       C1036   1.501       .  S
C363       C1059   1.476       .  S
O365        C368   1.267       .  A
O366        C368   1.267       .  A
C368       C1046   1.467       .  S
O369        C374   1.269       .  A
O370        C372   1.272       .  A
C371        O373   1.273       .  A
C371       C1486   1.470       .  S
C372       C1579   1.477       .  S
C374       C1026   1.490       .  S
Fe375       O391   2.062       .  S
Fe375       O381   2.013       .  S
Fe375       O388   2.045       .  S
Fe375       O380   2.054       .  S
Fe375       O386   1.940       .  S
Fe376       O379   2.067       .  S
Fe376       O383   2.071       .  S
Fe376       O387   2.074       .  S
Fe376       O392   2.052       .  S
Fe376       O386   1.932       .  S
Fe377       O395   2.076       .  S
Fe377       O382   2.098       .  S
Fe377       O389   2.114       .  S
Fe377       O378   2.096       .  S
Fe377       O386   1.937       .  S
O378        C385   1.271       .  A
O379        C393   1.270       .  A
O380        C385   1.260       .  A
O381        C384   1.255       .  A
O382        C394   1.276       .  A
O383        C396   1.270       .  A
C384        O389   1.284       .  A
C384       C1016   1.502       .  S
C385       C1056   1.496       .  S
O387        C390   1.273       .  A
O388        C390   1.266       .  A
C390       C1009   1.468       .  S
O391        C396   1.264       .  A
O392        C394   1.270       .  A
C393        O395   1.272       .  A
C393        C986   1.498       .  S
C394        C996   1.481       .  S
C396       C1226   1.487       .  S
Fe397       O413   2.070       .  S
Fe397       O403   2.074       .  S
Fe397       O410   2.092       .  S
Fe397       O402   2.046       .  S
Fe397       O408   1.938       .  S
Fe398       O401   2.015       .  S
Fe398       O405   2.086       .  S
Fe398       O409   2.044       .  S
Fe398       O414   2.114       .  S
Fe398       O408   1.923       .  S
Fe399       O417   2.103       .  S
Fe399       O404   2.070       .  S
Fe399       O411   2.073       .  S
Fe399       O400   2.097       .  S
Fe399       O408   1.971       .  S
O400        C407   1.277       .  A
O401        C415   1.250       .  A
O402        C407   1.271       .  A
O403        C406   1.272       .  A
O404        C416   1.269       .  A
O405        C418   1.271       .  A
C406        O411   1.270       .  A
C406        C976   1.479       .  S
C407       C1049   1.485       .  S
O409        C412   1.268       .  A
O410        C412   1.274       .  A
C412       C1586   1.468       .  S
O413        C418   1.269       .  A
O414        C416   1.274       .  A
C415        O417   1.270       .  A
C415        C969   1.470       .  S
C416        C956   1.494       .  S
C418       C1039   1.482       .  S
Fe419       O435   2.059       .  S
Fe419       O425   2.050       .  S
Fe419       O432   2.057       .  S
Fe419       O424   2.055       .  S
Fe419       O430   1.973       .  S
Fe420       O423   2.063       .  S
Fe420       O427   2.072       .  S
Fe420       O431   2.061       .  S
Fe420       O436   2.060       .  S
Fe420       O430   1.974       .  S
Fe421       O439   2.062       .  S
Fe421       O426   2.060       .  S
Fe421       O433   2.071       .  S
Fe421       O422   2.064       .  S
Fe421       O430   1.983       .  S
O422        C429   1.268       .  A
O423        C437   1.271       .  A
O424        C429   1.269       .  A
O425        C428   1.264       .  A
O426        C438   1.266       .  A
O427        C440   1.272       .  A
C428        O433   1.267       .  A
C428        C979   1.472       .  S
C429       C2670   1.476       .  S
O431        C434   1.265       .  A
O432        C434   1.263       .  A
C434        C949   1.468       .  S
O435        C440   1.268       .  A
O436        C438   1.267       .  A
C437        O439   1.266       .  A
C437       C1219   1.467       .  S
C438       C1299   1.494       .  S
C440       C1019   1.486       .  S
Fe441       O457   2.047       .  S
Fe441       O447   2.049       .  S
Fe441       O446   2.044       .  S
Fe441      O2118   2.083   1_554  S
Fe441       O452   1.970       .  S
Fe442       O445   2.048   1_556  S
Fe442       O449   2.062   1_556  S
Fe442      O2117   2.044       .  S
Fe442      O2122   2.049       .  S
Fe442       O452   1.975   1_556  S
Fe443       O461   2.099       .  S
Fe443       O448   2.066       .  S
Fe443       O455   2.077       .  S
Fe443       O444   2.093       .  S
Fe443       O452   1.983       .  S
O444        C451   1.272       .  A
O445        C459   1.268       .  A
O446        C451   1.262       .  A
O447        C450   1.267       .  A
O448       C2124   1.265   1_554  A
O449        C462   1.264       .  A
C450        O455   1.269       .  A
C450        C896   1.487       .  S
C451        C916   1.500       .  S
O453      Fe2106   2.046       .  S
O453        C456   1.268       .  A
O454      Fe2105   2.086       .  S
O454        C456   1.275       .  A
C456        C906   1.467       .  S
O457        C462   1.261       .  A
O458      Fe2106   2.054       .  S
O458        C460   1.265       .  A
C459        O461   1.280       .  A
C459        C939   1.476       .  S
C460       O2112   1.265       .  A
C460        C926   1.476       .  S
C462       C1069   1.485       .  S
Fe463       O479   2.051       .  S
Fe463       O469   2.067       .  S
Fe463       O468   2.039       .  S
Fe463      O2140   2.070       .  S
Fe463       O474   1.941       .  S
Fe464       O475   2.033       .  S
Fe464       O480   2.064       .  S
Fe464      O2131   2.044   1_554  S
Fe464      O2135   2.080       .  S
Fe464      O2138   1.950   1_554  S
Fe465       O483   2.088       .  S
Fe465       O477   2.065       .  S
Fe465       O466   2.110       .  S
Fe465      O2134   2.067       .  S
Fe465       O474   1.954       .  S
O466        C473   1.276       .  A
O467      Fe2128   2.048       .  S
O467        C481   1.266       .  A
O468        C473   1.265       .  A
O469        C472   1.265       .  A
O470      Fe2129   2.065   1_554  S
O470        C482   1.267       .  A
O471      Fe2128   2.083       .  S
O471        C484   1.270       .  A
C472        O477   1.270       .  A
C472        C886   1.491       .  S
C473        C919   1.482       .  S
O474      Fe2128   1.948       .  S
O475        C478   1.265       .  A
O476      Fe2127   2.080   1_554  S
O476        C478   1.271       .  A
C478        C876   1.466       .  S
O479        C484   1.267       .  A
O480        C482   1.269       .  A
C481        O483   1.273       .  A
C481        C946   1.476       .  S
C482        C999   1.470       .  S
C484       C1399   1.483       .  S
Fe485       O501   2.073       .  S
Fe485       O491   2.049       .  S
Fe485       O498   2.045       .  S
Fe485       O490   2.042       .  S
Fe485       O496   1.967       .  S
Fe486       O489   2.061       .  S
Fe486       O493   2.068       .  S
Fe486       O497   2.077       .  S
Fe486       O502   2.062       .  S
Fe486       O496   1.977       .  S
Fe487       O505   2.066       .  S
Fe487       O492   2.105       .  S
Fe487       O499   2.104       .  S
Fe487       O488   2.077       .  S
Fe487       O496   1.982       .  S
O488        C495   1.270       .  A
O489        C503   1.268       .  A
O490        C495   1.268       .  A
O491        C494   1.261       .  A
O492        C504   1.280       .  A
O493        C506   1.272       .  A
C494        O499   1.274       .  A
C494        C856   1.508       .  S
C495        C909   1.480       .  S
O497        C500   1.266       .  A
O498        C500   1.260       .  A
C500        C866   1.489       .  S
O501        C506   1.273       .  A
O502        C504   1.271       .  A
C503        O505   1.265       .  A
C503       C1076   1.482       .  S
C504       C1109   1.485       .  S
C506        C899   1.472       .  S
Fe507       O523   2.088       .  S
Fe507       O513   2.046       .  S
Fe507       O520   2.066       .  S
Fe507       O512   2.089       .  S
Fe507       O518   1.956       .  S
Fe508       O511   2.091       .  S
Fe508       O515   2.062       .  S
Fe508       O519   2.077       .  S
Fe508       O524   2.048       .  S
Fe508       O518   1.951       .  S
Fe509       O527   2.060       .  S
Fe509       O514   2.109       .  S
Fe509       O521   2.112       .  S
Fe509       O510   2.044       .  S
Fe509       O518   1.975       .  S
O510        C517   1.268       .  A
O511        C525   1.275       .  A
O512        C517   1.276       .  A
O513        C516   1.264       .  A
O514        C526   1.277       .  A
O515        C528   1.275       .  A
C516        O521   1.275       .  A
C516        C859   1.498       .  S
C517        C879   1.471       .  S
O519        C522   1.267       .  A
O520        C522   1.264       .  A
C522        C989   1.491       .  S
O523        C528   1.277       .  A
O524        C526   1.264       .  A
C525        O527   1.268       .  A
C525       C1409   1.478       .  S
C526       C1336   1.506       .  S
C528        C889   1.493       .  S
Fe529       O545   2.078       .  S
Fe529       O535   2.055       .  S
Fe529       O542   2.052       .  S
Fe529       O534   2.060       .  S
Fe529       O540   1.956       .  S
Fe530       O533   2.068       .  S
Fe530       O537   2.087       .  S
Fe530       O541   2.079       .  S
Fe530       O546   2.054       .  S
Fe530       O540   1.948       .  S
Fe531       O549   2.071       .  S
Fe531       O536   2.087       .  S
Fe531       O543   2.079       .  S
Fe531       O532   2.084       .  S
Fe531       O540   1.967       .  S
O532        C539   1.272       .  A
O533        C547   1.268       .  A
O534        C539   1.267       .  A
O535        C538   1.271       .  A
O536        C548   1.273       .  A
O537        C550   1.269       .  A
C538        O543   1.272       .  A
C538        C826   1.473       .  S
C539        C846   1.497       .  S
O541        C544   1.275       .  A
O542        C544   1.269       .  A
C544        C839   1.478       .  S
O545        C550   1.267       .  A
O546        C548   1.270       .  A
C547        O549   1.270       .  A
C547       C1446   1.501       .  S
C548       C1379   1.481       .  S
C550        C959   1.509       .  S
Fe551       O567   2.060       .  S
Fe551       O557   2.071       .  S
Fe551       O564   2.078       .  S
Fe551       O556   2.072       .  S
Fe551       O562   1.973       .  S
Fe552       O555   2.059       .  S
Fe552       O559   2.068       .  S
Fe552       O563   2.081       .  S
Fe552       O568   2.057       .  S
Fe552       O562   1.978       .  S
Fe553       O571   2.072       .  S
Fe553       O558   2.081       .  S
Fe553       O565   2.072       .  S
Fe553       O554   2.086       .  S
Fe553       O562   1.983       .  S
O554        C561   1.275       .  A
O555        C569   1.272       .  A
O556        C561   1.271       .  A
O557        C560   1.269       .  A
O558        C570   1.267       .  A
O559        C572   1.263       .  A
C560        O565   1.266       .  A
C560        C816   1.490       .  S
C561        C849   1.494       .  S
O563        C566   1.274       .  A
O564        C566   1.274       .  A
C566        C809   1.482       .  S
O567        C572   1.266       .  A
O568        C570   1.266       .  A
C569        O571   1.272       .  A
C569       C1099   1.489       .  S
C570       C1179   1.480       .  S
C572        C799   1.486       .  S
Fe573       O579   2.082       .  S
Fe573       O586   2.102       .  S
Fe573       O578   2.057       .  S
Fe573      O2253   2.075   1_554  S
Fe573       O584   1.936       .  S
Fe574       O585   2.039       .  S
Fe574       O590   2.092       .  S
Fe574      O2241   2.044   1_554  S
Fe574      O2245   2.067   1_554  S
Fe574       O584   1.928       .  S
Fe575       O593   2.099       .  S
Fe575       O580   2.055       .  S
Fe575       O587   2.074       .  S
Fe575       O576   2.096       .  S
Fe575       O584   1.956       .  S
O576        C583   1.277       .  A
O577      Fe2238   2.038       .  S
O577        C591   1.265       .  A
O578        C583   1.272       .  A
O579        C582   1.273       .  A
O580        C592   1.267       .  A
O581      Fe2238   2.070       .  S
O581        C594   1.261       .  A
C582        O587   1.270       .  A
C582        C789   1.483       .  S
C583        C836   1.483       .  S
O585        C588   1.269       .  A
O586        C588   1.279       .  A
C588       C1366   1.468       .  S
O589      Fe2237   2.074       .  S
O589        C594   1.267       .  A
O590        C592   1.269       .  A
C591       O2257   1.275       .  A
C591        C966   1.469       .  S
C592       C1029   1.488       .  S
O593       C2255   1.274   1_554  A
C594        C829   1.499       .  S
Fe595       O601   2.075       .  S
Fe595       O608   2.094       .  S
Fe595       O600   2.051       .  S
Fe595      O2275   2.065       .  S
Fe595       O606   1.938       .  S
Fe596       O599   2.036       .  S
Fe596       O603   2.082       .  S
Fe596      O2271   2.051   1_554  S
Fe596      O2276   2.101   1_554  S
Fe596      O2270   1.918   1_554  S
Fe597       O602   2.072       .  S
Fe597       O609   2.096       .  S
Fe597       O598   2.114       .  S
Fe597      O2279   2.124       .  S
Fe597       O606   1.962       .  S
O598        C605   1.279       .  A
O599        C613   1.258       .  A
O600        C605   1.271       .  A
O601        C604   1.272       .  A
O602        C614   1.269       .  A
O603        C616   1.273       .  A
C604        O609   1.276       .  A
C604        C786   1.499       .  S
C605        C806   1.500       .  S
O606      Fe2260   1.925       .  S
O607      Fe2260   2.047       .  S
O607        C610   1.265       .  A
O608        C610   1.273       .  A
C610       C1166   1.485       .  S
O611      Fe2259   2.067   1_554  S
O611        C616   1.269       .  A
O612      Fe2260   2.088       .  S
O612        C614   1.267       .  A
C613        O615   1.278       .  A
C613        C769   1.483       .  S
C614        C776   1.498       .  S
O615      Fe2261   2.124   1_554  S
C616        C819   1.482       .  S
Fe617       O633   2.071   1_655  S
Fe617       O623   2.062       .  S
Fe617       O630   2.075   1_655  S
Fe617       O622   2.052       .  S
Fe617       O628   1.945       .  S
Fe618       O621   2.055       .  S
Fe618       O625   2.088   1_655  S
Fe618       O629   2.054       .  S
Fe618       O634   2.075       .  S
Fe618       O628   1.931       .  S
Fe619       O637   2.106       .  S
Fe619       O624   2.054       .  S
Fe619       O631   2.057       .  S
Fe619       O620   2.112       .  S
Fe619       O628   1.947       .  S
O620        C627   1.278       .  A
O621        C635   1.267       .  A
O622        C627   1.270       .  A
O623        C626   1.266       .  A
O624        C636   1.268       .  A
O625        C638   1.271       .  A
C626        O631   1.270       .  A
C626       C2400   1.477       .  S
C627        C756   1.500       .  S
O629        C632   1.268       .  A
O630        C632   1.266   1_455  A
C632        C746   1.503   1_655  S
O633        C638   1.269       .  A
O634        C636   1.271       .  A
C635        O637   1.276       .  A
C635       C1529   1.507       .  S
C636       C1639   1.464       .  S
C638        C779   1.494       .  S
Fe639       O655   2.101       .  S
Fe639       O645   2.041   1_455  S
Fe639       O652   2.057       .  S
Fe639       O644   2.098   1_455  S
Fe639       O650   1.946   1_455  S
Fe640       O643   2.086       .  S
Fe640       O647   2.066   1_655  S
Fe640       O651   2.088       .  S
Fe640       O656   2.057       .  S
Fe640       O650   1.954       .  S
Fe641       O659   2.065       .  S
Fe641       O646   2.090       .  S
Fe641       O653   2.087       .  S
Fe641       O642   2.072       .  S
Fe641       O650   1.964       .  S
O642        C649   1.272       .  A
O643        C657   1.274       .  A
O644        C649   1.279       .  A
O645        C648   1.264       .  A
O646        C658   1.272       .  A
O647        C660   1.268       .  A
C648        O653   1.268       .  A
C648        C726   1.497       .  S
C649        C759   1.492       .  S
O651        C654   1.274   1_655  A
O652        C654   1.267       .  A
C654        C716   1.478       .  S
O655        C660   1.276       .  A
O656        C658   1.268       .  A
C657        O659   1.269       .  A
C657        C869   1.495       .  S
C658        C929   1.483       .  S
C660       C1199   1.494       .  S
Fe661       O677   2.059   1_455  S
Fe661       O667   2.070       .  S
Fe661       O674   2.099   1_455  S
Fe661       O666   2.030       .  S
Fe661       O672   1.944       .  S
Fe662       O665   2.020       .  S
Fe662       O669   2.071       .  S
Fe662       O673   2.040       .  S
Fe662       O678   2.121       .  S
Fe662       O672   1.928       .  S
Fe663       O681   2.134       .  S
Fe663       O668   2.060       .  S
Fe663       O675   2.081       .  S
Fe663       O664   2.101       .  S
Fe663       O672   1.973       .  S
O664        C671   1.277       .  A
O665        C679   1.247       .  A
O666        C671   1.264       .  A
O667        C670   1.274       .  A
O668        C680   1.268       .  A
O669        C682   1.268   1_455  A
C670        O675   1.274       .  A
C670        C706   1.490       .  S
C671        C749   1.483       .  S
O673        C676   1.267   1_455  A
O674        C676   1.279       .  A
C676       C1649   1.495       .  S
O677        C682   1.263       .  A
O678        C680   1.279       .  A
C679        O681   1.275       .  A
C679        C766   1.485       .  S
C680        C796   1.496       .  S
C682        C739   1.474       .  S
Fe683       O699   2.058       .  S
Fe683       O689   2.070       .  S
Fe683       O696   2.054   1_455  S
Fe683       O688   2.054       .  S
Fe683       O694   1.974       .  S
Fe684       O687   2.057       .  S
Fe684       O691   2.079       .  S
Fe684       O695   2.061       .  S
Fe684       O700   2.072       .  S
Fe684       O694   1.974       .  S
Fe685       O703   2.085       .  S
Fe685       O690   2.068       .  S
Fe685       O697   2.087       .  S
Fe685       O686   2.080       .  S
Fe685       O694   1.982       .  S
O686        C693   1.269       .  A
O687        C701   1.266       .  A
O688        C693   1.267       .  A
O689        C692   1.269       .  A
O690        C702   1.271       .  A
O691        C704   1.275       .  A
C692        O697   1.273       .  A
C692        C709   1.490       .  S
C693        C719   1.491       .  S
O695        C698   1.263   1_455  A
O696        C698   1.263       .  A
C698        C936   1.476       .  S
O699        C704   1.270       .  A
O700        C702   1.275       .  A
C701        O703   1.269       .  A
C701       C1189   1.481       .  S
C702       C1246   1.496       .  S
C704        C729   1.474   1_455  S
C705        C706   1.416       .  A
C705        C710   1.416       .  A
C705       Br712   1.926       .  S
C706        C707   1.411       .  A
C707        C708   1.406       .  A
C707       Br714   1.937       .  S
C708        C709   1.413   1_545  A
C708       Br713   1.919   1_545  S
C709        C710   1.411   1_565  A
C710       Br711   1.929       .  S
C715        C716   1.405       .  A
C715        C720   1.409       .  A
C715       Br722   1.930       .  S
C716        C717   1.406       .  A
C717       C2382   1.407       .  A
C717       Br724   1.922   1_455  S
C718        C719   1.413   1_556  A
C718       C2381   1.407       .  A
C718       Br723   1.931   1_456  S
C719       C2384   1.420   1_554  A
C720       C2383   1.420       .  A
C720       Br721   1.929       .  S
C725        C726   1.423       .  A
C725        C730   1.413       .  A
C725       Br732   1.929       .  S
C726        C727   1.415   1_655  A
C727        C728   1.401       .  A
C727       Br734   1.936       .  S
C728        C729   1.403   1_455  A
C728       Br733   1.926       .  S
C729        C730   1.407       .  A
C730       Br731   1.931       .  S
C735        C736   1.418   1_455  A
C735        C740   1.400       .  A
C735      Br2406   1.938   1_554  S
C736       C2290   1.482   1_554  S
C736        C737   1.414       .  A
C737        C738   1.409       .  A
C737       Br744   1.931       .  S
C738        C739   1.406       .  A
C738       Br743   1.922       .  S
C739        C740   1.406   1_655  A
C740       Br741   1.923       .  S
Br742      C2399   1.937       .  S
C745        C746   1.432       .  A
C745        C750   1.414       .  A
C745       Br752   1.938       .  S
C746        C747   1.421   1_455  A
C747        C748   1.402   1_655  A
C747       Br754   1.944       .  S
C748        C749   1.412       .  A
C748       Br753   1.933   1_455  S
C749        C750   1.405       .  A
C750       Br751   1.933       .  S
C755        C756   1.420       .  A
C755        C760   1.418       .  A
C755       Br762   1.931       .  S
C756        C757   1.416       .  A
C757        C758   1.409       .  A
C757       Br764   1.931       .  S
C758        C759   1.409   1_545  A
C758       Br763   1.932       .  S
C759        C760   1.413   1_565  A
C760       Br761   1.929   1_545  S
C765        C766   1.412       .  A
C765        C770   1.418       .  A
C765       Br772   1.923       .  S
C766        C767   1.419       .  A
C767        C768   1.397       .  A
C767       Br774   1.949       .  S
C768        C769   1.417       .  A
C768       Br773   1.943       .  S
C769        C770   1.412       .  A
C770       Br771   1.925       .  S
C775        C776   1.418       .  A
C775        C780   1.412       .  A
C775       Br782   1.935       .  S
C776        C777   1.418       .  A
C777        C778   1.413       .  A
C777       Br784   1.932       .  S
C778        C779   1.413       .  A
C778       Br783   1.933       .  S
C779        C780   1.413       .  A
C780       Br781   1.928       .  S
C785        C786   1.416       .  A
C785        C790   1.410       .  A
C785       Br792   1.933       .  S
C786       C2451   1.418       .  A
C787        C788   1.415       .  A
C787       C2450   1.416   1_554  A
C787       Br794   1.928       .  S
C788        C789   1.408       .  A
C788       Br793   1.927       .  S
C789       C2454   1.408   1_554  A
C790       C2453   1.408       .  A
C790       Br791   1.928       .  S
C795        C796   1.411       .  A
C795        C800   1.403       .  A
C795       Br802   1.909       .  S
C796        C797   1.416       .  A
C797        C798   1.416       .  A
C797       Br804   1.925       .  S
C798        C799   1.413       .  A
C798       Br803   1.929       .  S
C799        C800   1.407       .  A
C800       Br801   1.937       .  S
C805        C806   1.422       .  A
C805        C810   1.417       .  A
C805       Br812   1.928       .  S
C806        C807   1.415       .  A
C807        C808   1.405       .  A
C807       Br814   1.932       .  S
C808        C809   1.405       .  A
C808       Br813   1.927       .  S
C809        C810   1.408       .  A
C810       Br811   1.929       .  S
C815        C816   1.411       .  A
C815        C820   1.412       .  A
C815       Br822   1.930       .  S
C816        C817   1.417       .  A
C817        C818   1.407       .  A
C817       Br824   1.924       .  S
C818        C819   1.407       .  A
C818       Br823   1.936       .  S
C819        C820   1.411       .  A
C820       Br821   1.923       .  S
C825        C826   1.404       .  A
C825        C830   1.404       .  A
C825       Br832   1.941       .  S
C826        C827   1.405       .  A
C827        C828   1.412       .  A
C827       Br834   1.928       .  S
C828        C829   1.421       .  A
C828       Br833   1.932       .  S
C829        C830   1.427       .  A
C830       Br831   1.934       .  S
C835        C836   1.414       .  A
C835        C840   1.404       .  A
C835       Br842   1.922       .  S
C836        C837   1.410       .  A
C837        C838   1.411       .  A
C837       Br844   1.930       .  S
C838        C839   1.414       .  A
C838       Br843   1.931       .  S
C839        C840   1.409       .  A
C840       Br841   1.938       .  S
C845        C846   1.417       .  A
C845        C850   1.416       .  A
C845       Br852   1.931       .  S
C846        C847   1.416       .  A
C847        C848   1.407       .  A
C847       Br854   1.938       .  S
C848        C849   1.415       .  A
C848       Br853   1.930       .  S
C849        C850   1.414       .  A
C850       Br851   1.931       .  S
C855        C856   1.425       .  A
C855        C860   1.406       .  A
C855       Br862   1.942       .  S
C856        C857   1.421       .  A
C857        C858   1.422       .  A
C857       Br864   1.931       .  S
C858        C859   1.413       .  A
C858       Br863   1.925       .  S
C859        C860   1.412       .  A
C860       Br861   1.939       .  S
C865        C866   1.416       .  A
C865        C870   1.409       .  A
C865       Br872   1.937       .  S
C866        C867   1.411       .  A
C867        C868   1.410       .  A
C867       Br874   1.930       .  S
C868        C869   1.417       .  A
C868       Br873   1.935       .  S
C869        C870   1.419       .  A
C870       Br871   1.937       .  S
C875        C876   1.411       .  A
C875        C880   1.409       .  A
C875       Br882   1.928       .  S
C876        C877   1.405       .  A
C877        C878   1.397       .  A
C877       Br884   1.936       .  S
C878        C879   1.410       .  A
C878       Br883   1.922       .  S
C879        C880   1.407       .  A
C880       Br881   1.922       .  S
C885        C886   1.413       .  A
C885        C890   1.410       .  A
C885       Br892   1.937       .  S
C886        C887   1.420       .  A
C887        C888   1.406       .  A
C887       Br894   1.939       .  S
C888        C889   1.412       .  A
C888       Br893   1.930       .  S
C889        C890   1.416       .  A
C890       Br891   1.919       .  S
C895        C896   1.416       .  A
C895        C900   1.408       .  A
C895       Br902   1.933       .  S
C896        C897   1.413       .  A
C897        C898   1.404       .  A
C897       Br904   1.932       .  S
C898        C899   1.407       .  A
C898       Br903   1.926       .  S
C899        C900   1.408       .  A
C900       Br901   1.931       .  S
C905        C906   1.405       .  A
C905        C910   1.403       .  A
C905       Br912   1.927       .  S
C906        C907   1.408       .  A
C907        C908   1.406       .  A
C907       Br914   1.928       .  S
C908        C909   1.414       .  A
C908       Br913   1.932       .  S
C909        C910   1.415       .  A
C910       Br911   1.934       .  S
C915        C916   1.423   1_556  A
C915       C2584   1.400       .  A
C915      Br2586   1.945       .  S
C916        C917   1.422       .  A
C917        C918   1.420       .  A
C917       Br924   1.930       .  S
C918       C2583   1.410       .  A
C918       Br923   1.930       .  S
C919        C920   1.404       .  A
C919       C2582   1.406       .  A
C920       C2579   1.406       .  A
C920       Br921   1.937       .  S
Br922      C2579   1.938       .  S
C925        C926   1.410       .  A
C925        C930   1.410       .  A
C925      Br2596   1.930       .  S
C926        C927   1.404       .  A
C927        C928   1.404       .  A
C927       Br934   1.921       .  S
C928        C929   1.413       .  A
C928       Br933   1.924       .  S
C929        C930   1.410       .  A
C930       Br931   1.924       .  S
Br932      C2589   1.930   1_554  S
C935        C936   1.412       .  A
C935        C940   1.410       .  A
C935       Br942   1.929       .  S
C936        C937   1.409       .  A
C937        C938   1.404       .  A
C937       Br944   1.934       .  S
C938        C939   1.412       .  A
C938       Br943   1.931       .  S
C939        C940   1.408       .  A
C940       Br941   1.924       .  S
C945        C946   1.413       .  A
C945        C950   1.405       .  A
C945       Br952   1.933       .  S
C946        C947   1.411       .  A
C947        C948   1.408       .  A
C947       Br954   1.928       .  S
C948        C949   1.406       .  A
C948       Br953   1.929       .  S
C949        C950   1.407       .  A
C950       Br951   1.931       .  S
C955        C956   1.409       .  A
C955        C960   1.411       .  A
C955       Br962   1.927       .  S
C956        C957   1.408       .  A
C957        C958   1.419       .  A
C957       Br964   1.927       .  S
C958        C959   1.422       .  A
C958       Br963   1.930       .  S
C959        C960   1.422       .  A
C960       Br961   1.938       .  S
C965        C966   1.412       .  A
C965        C970   1.388       .  A
C965       Br972   1.943       .  S
C966        C967   1.412       .  A
C967        C968   1.412       .  A
C967       Br974   1.928       .  S
C968        C969   1.410       .  A
C968       Br973   1.927       .  S
C969        C970   1.416       .  A
C970       Br971   1.946       .  S
C975        C976   1.410       .  A
C975        C980   1.405   1_545  A
C975       Br982   1.931       .  S
C976        C977   1.413       .  A
C977        C978   1.411       .  A
C977       Br984   1.925       .  S
C978        C979   1.408   1_545  A
C978       Br983   1.931   1_545  S
C979        C980   1.408       .  A
C980       Br981   1.931       .  S
C985        C986   1.422       .  A
C985        C990   1.410       .  A
C985       Br992   1.937       .  S
C986        C987   1.419       .  A
C987        C988   1.410       .  A
C987       Br994   1.939       .  S
C988        C989   1.411       .  A
C988       Br993   1.922       .  S
C989        C990   1.410       .  A
C990       Br991   1.930       .  S
C995        C996   1.410       .  A
C995       C1000   1.406       .  A
C995      Br1002   1.923       .  S
C996        C997   1.414       .  A
C997        C998   1.409       .  A
C997      Br1004   1.925       .  S
C998        C999   1.406       .  A
C998      Br1003   1.931       .  S
C999       C1000   1.405       .  A
C1000     Br1001   1.929       .  S
C1005      C1006   1.410       .  A
C1005      C1010   1.407       .  A
C1005     Br1012   1.932   1_554  S
C1006      C2093   1.474   1_554  S
C1006      C1007   1.413       .  A
C1007      C1008   1.397       .  A
C1007     Br2678   1.929       .  S
C1008      C1009   1.406       .  A
C1008     Br1013   1.933       .  S
C1009      C1010   1.412       .  A
C1010     Br1011   1.928       .  S
Br1014     C2671   1.924       .  S
C1015      C1016   1.418       .  A
C1015      C1020   1.414       .  A
C1015     Br1022   1.935       .  S
C1016      C1017   1.428       .  A
C1017      C1018   1.401       .  A
C1017     Br1024   1.945       .  S
C1018      C1019   1.409       .  A
C1018     Br1023   1.935       .  S
C1019      C1020   1.415       .  A
C1020     Br1021   1.933       .  S
C1025      C1026   1.416       .  A
C1025      C1030   1.413       .  A
C1025     Br1032   1.932       .  S
C1026      C1027   1.413       .  A
C1027      C1028   1.408       .  A
C1027     Br1034   1.933       .  S
C1028      C1029   1.411       .  A
C1028     Br1033   1.932       .  S
C1029      C1030   1.414       .  A
C1030     Br1031   1.931       .  S
C1035      C1036   1.422       .  A
C1035      C2704   1.408   1_554  A
C1035     Br1042   1.939       .  S
C1036      C2701   1.420   1_554  A
C1037      C1038   1.413       .  A
C1037      C2700   1.418       .  A
C1037     Br1044   1.931       .  S
C1038      C1039   1.407       .  A
C1038     Br1043   1.927       .  S
C1039      C1040   1.408       .  A
C1040      C2699   1.404       .  A
C1040     Br1041   1.924       .  S
C1045      C1046   1.405       .  A
C1045      C1050   1.406       .  A
C1045     Br1052   1.929       .  S
C1046      C1047   1.403       .  A
C1047      C1048   1.406       .  A
C1047     Br1054   1.933       .  S
C1048      C1049   1.419       .  A
C1048     Br1053   1.927       .  S
C1049      C1050   1.416       .  A
C1050     Br1051   1.933       .  S
C1055      C1056   1.425   1_545  A
C1055      C1060   1.397       .  A
C1055     Br1062   1.938   1_545  S
C1056      C1057   1.421   1_565  A
C1057      C1058   1.417       .  A
C1057     Br1064   1.929   1_545  S
C1058      C1059   1.409       .  A
C1058     Br1063   1.929       .  S
C1059      C1060   1.406       .  A
C1060     Br1061   1.945       .  S
C1065      C1066   1.416       .  A
C1065      C1070   1.408       .  A
C1065     Br1072   1.935       .  S
C1066      C1067   1.418       .  A
C1067      C1068   1.408       .  A
C1067     Br1074   1.939       .  S
C1068      C1069   1.416       .  A
C1068     Br1073   1.939       .  S
C1069      C1070   1.413       .  A
C1070     Br1071   1.935       .  S
C1075      C1076   1.405       .  A
C1075      C1080   1.401       .  A
C1075     Br1082   1.928       .  S
C1076      C1077   1.414       .  A
C1077      C1078   1.413       .  A
C1077     Br1084   1.929       .  S
C1078      C1079   1.408       .  A
C1078     Br1083   1.918       .  S
C1079      C1080   1.408       .  A
C1080     Br1081   1.908       .  S
C1085      C1086   1.411       .  A
C1085      C1090   1.413       .  A
C1085     Br1092   1.931       .  S
C1086      C1087   1.407       .  A
C1087      C1088   1.398       .  A
C1087     Br1094   1.940       .  S
C1088      C1089   1.417       .  A
C1088     Br1093   1.931   1_655  S
C1089      C1090   1.415       .  A
C1090     Br1091   1.930       .  S
C1095      C1096   1.414       .  A
C1095      C1100   1.406       .  A
C1095     Br1102   1.937       .  S
C1096      C1097   1.410       .  A
C1097      C1098   1.406       .  A
C1097     Br1104   1.932       .  S
C1098      C1099   1.416       .  A
C1098     Br1103   1.934       .  S
C1099      C1100   1.417       .  A
C1100     Br1101   1.936       .  S
C1105      C1106   1.413       .  A
C1105      C1110   1.406       .  A
C1105     Br1112   1.926       .  S
C1106      C1107   1.416       .  A
C1107      C1108   1.417       .  A
C1107     Br1114   1.929       .  S
C1108      C1109   1.410       .  A
C1108     Br1113   1.925       .  S
C1109      C1110   1.408       .  A
C1110     Br1111   1.930       .  S
C1115      C1116   1.419       .  A
C1115      C1120   1.408       .  A
C1115     Br1122   1.922       .  S
C1116      C1117   1.417       .  A
C1117      C1118   1.407       .  A
C1117     Br1124   1.934   1_455  S
C1118      C1119   1.406       .  A
C1118     Br1123   1.927   1_455  S
C1119      C1120   1.402       .  A
C1120     Br1121   1.931       .  S
C1125      C1126   1.403       .  A
C1125      C1130   1.407       .  A
C1125     Br1132   1.929       .  S
C1126      C1127   1.405   1_655  A
C1127      C2792   1.405       .  A
C1127     Br1134   1.918       .  S
C1128      C1129   1.413   1_456  A
C1128      C2791   1.406       .  A
C1128     Br1133   1.934   1_556  S
C1129      C2794   1.415   1_554  A
C1130      C2793   1.418       .  A
C1130     Br1131   1.925       .  S
C1135      C1136   1.420       .  A
C1135      C1140   1.405       .  A
C1135     Br1142   1.933       .  S
C1136      C1938   1.488   1_554  S
C1136      C1137   1.417       .  A
C1137      C1138   1.408       .  A
C1137     Br2808   1.931   1_554  S
C1138      C1139   1.405       .  A
C1138     Br1143   1.930   1_455  S
C1139      C1140   1.404       .  A
C1140     Br1141   1.934       .  S
Br1144     C2801   1.932       .  S
C1145      C1146   1.425       .  A
C1145      C1150   1.402       .  A
C1145     Br1152   1.941   1_655  S
C1146      C1147   1.426       .  A
C1147      C1148   1.417       .  A
C1147     Br1154   1.932       .  S
C1148      C1149   1.405       .  A
C1148     Br1153   1.929       .  S
C1149      C1150   1.403       .  A
C1150     Br1151   1.937       .  S
C1155      C1156   1.409       .  A
C1155      C1160   1.407       .  A
C1155     Br1162   1.929       .  S
C1156      C1157   1.409       .  A
C1157      C1158   1.402       .  A
C1157     Br1164   1.931       .  S
C1158      C1159   1.409       .  A
C1158     Br1163   1.931       .  S
C1159      C1160   1.410       .  A
C1160     Br1161   1.929       .  S
C1165      C1166   1.412       .  A
C1165      C1170   1.401       .  A
C1165     Br1172   1.929       .  S
C1166      C1167   1.418       .  A
C1167      C1168   1.412       .  A
C1167     Br2838   1.932       .  S
C1168      C1169   1.408       .  A
C1168     Br2837   1.927       .  S
C1169      C1170   1.405       .  A
C1170     Br1171   1.922       .  S
Br1173     C2832   1.927       .  S
Br1174     C2831   1.932   1_554  S
C1175      C1176   1.404       .  A
C1175      C1180   1.400       .  A
C1175     Br1182   1.930       .  S
C1176      C1177   1.412       .  A
C1177      C1178   1.415       .  A
C1177     Br1184   1.926       .  S
C1178      C1179   1.407       .  A
C1178     Br1183   1.920       .  S
C1179      C1180   1.409       .  A
C1180     Br1181   1.918       .  S
C1185      C1186   1.403       .  A
C1185      C1190   1.396       .  A
C1185     Br1192   1.939       .  S
C1186      C1187   1.414       .  A
C1187      C1188   1.415       .  A
C1187     Br1194   1.927       .  S
C1188      C1189   1.409       .  A
C1188     Br1193   1.921       .  S
C1189      C1190   1.412       .  A
C1190     Br1191   1.913       .  S
C1195      C1196   1.408       .  A
C1195      C1200   1.407       .  A
C1195     Br1202   1.934       .  S
C1196      C1197   1.409       .  A
C1197      C1198   1.416       .  A
C1197     Br1204   1.925       .  S
C1198      C1199   1.415       .  A
C1198     Br1203   1.926       .  S
C1199      C1200   1.410       .  A
C1200     Br1201   1.916       .  S
C1205      C1206   1.415       .  A
C1205      C1210   1.411       .  A
C1205     Br1212   1.934       .  S
C1206      C1207   1.411       .  A
C1207      C1208   1.407       .  A
C1207     Br1214   1.939       .  S
C1208      C1209   1.422       .  A
C1208     Br1213   1.937       .  S
C1209      C1210   1.417       .  A
C1210     Br1211   1.936       .  S
C1215      C1216   1.410       .  A
C1215      C1220   1.409       .  A
C1215     Br1222   1.926       .  S
C1216      C1217   1.404       .  A
C1217      C1218   1.399       .  A
C1217     Br1224   1.931       .  S
C1218      C1219   1.408       .  A
C1218     Br1223   1.924       .  S
C1219      C1220   1.405       .  A
C1220     Br1221   1.926       .  S
C1225      C1226   1.412       .  A
C1225      C1230   1.409       .  A
C1225     Br1232   1.936       .  S
C1226      C1227   1.415       .  A
C1227      C1228   1.408       .  A
C1227     Br1234   1.932       .  S
C1228      C1229   1.418       .  A
C1228     Br1233   1.938       .  S
C1229      C1230   1.419       .  A
C1230     Br1231   1.937       .  S
C1235      C1236   1.413       .  A
C1235      C1240   1.409       .  A
C1235     Br1242   1.926       .  S
C1236      C1237   1.413       .  A
C1237      C1238   1.407       .  A
C1237     Br1244   1.929       .  S
C1238      C1239   1.406       .  A
C1238     Br1243   1.927       .  S
C1239      C1240   1.405       .  A
C1240     Br1241   1.927       .  S
C1245      C1246   1.416       .  A
C1245      C1250   1.411       .  A
C1245     Br1252   1.934       .  S
C1246      C1247   1.421       .  A
C1247      C1248   1.408       .  A
C1247     Br1254   1.939       .  S
C1248      C1249   1.414       .  A
C1248     Br1253   1.939       .  S
C1249      C1250   1.414       .  A
C1250     Br1251   1.933       .  S
C1255      C1256   1.416       .  A
C1255      C1260   1.407       .  A
C1255     Br1262   1.920       .  S
C1256      C1257   1.414       .  A
C1257      C1258   1.411       .  A
C1257     Br1264   1.923       .  S
C1258      C1259   1.407       .  A
C1258     Br1263   1.931       .  S
C1259      C1260   1.402       .  A
C1260     Br1261   1.922       .  S
C1265      C1266   1.408       .  A
C1265      C1270   1.405       .  A
C1265     Br1272   1.931       .  S
C1266      C1267   1.407       .  A
C1267      C1268   1.413       .  A
C1267     Br1274   1.925       .  S
C1268      C1269   1.413       .  A
C1268     Br1273   1.926       .  S
C1269      C1270   1.413       .  A
C1270     Br1271   1.929       .  S
C1275      C1276   1.419       .  A
C1275      C1280   1.403       .  A
C1275     Br1282   1.936       .  S
C1276      C1277   1.420       .  A
C1277      C1278   1.405       .  A
C1277     Br1284   1.934       .  S
C1278      C1279   1.405       .  A
C1278     Br1283   1.931       .  S
C1279      C1280   1.403       .  A
C1280     Br1281   1.929       .  S
C1285      C1286   1.415       .  A
C1285      C1290   1.410       .  A
C1285     Br1292   1.928       .  S
C1286      C1287   1.413       .  A
C1287      C1288   1.409       .  A
C1287     Br1294   1.932       .  S
C1288      C1289   1.408       .  A
C1288     Br1293   1.920       .  S
C1289      C1290   1.410       .  A
C1290     Br1291   1.930       .  S
C1295      C1296   1.406       .  A
C1295      C1300   1.407       .  A
C1295     Br1302   1.933       .  S
C1296      C1297   1.407       .  A
C1297      C1298   1.405       .  A
C1297     Br2968   1.937       .  S
C1298      C1299   1.423       .  A
C1298     Br1303   1.938       .  S
C1299      C1300   1.420       .  A
C1300     Br1301   1.932       .  S
Br1304     C2961   1.935   1_554  S
C1305      C1306   1.404       .  A
C1305      C1310   1.412       .  A
C1305     Br1312   1.929       .  S
C1306      C1307   1.407       .  A
C1307      C1308   1.406       .  A
C1307     Br1314   1.934       .  S
C1308      C1309   1.419       .  A
C1308     Br1313   1.937       .  S
C1309      C1310   1.422       .  A
C1310     Br1311   1.932       .  S
C1315      C1316   1.407       .  A
C1315      C1320   1.402       .  A
C1315     Br1322   1.936       .  S
C1316      C1317   1.411       .  A
C1317      C1318   1.410       .  A
C1317     Br1324   1.930       .  S
C1318      C1319   1.411       .  A
C1318     Br1323   1.928       .  S
C1319      C1320   1.413       .  A
C1320     Br1321   1.927       .  S
C1325      C1326   1.425       .  A
C1325      C1330   1.423       .  A
C1325     Br1332   1.929       .  S
C1326      C2991   1.431   1_554  A
C1327      C1328   1.407       .  A
C1327      C2990   1.432       .  A
C1327     Br1334   1.942       .  S
C1328      C1329   1.407       .  A
C1328     Br1333   1.944       .  S
C1329      C2994   1.408       .  A
C1330      C2993   1.411   1_554  A
C1330     Br1331   1.931       .  S
C1335      C1336   1.426       .  A
C1335      C1340   1.411       .  A
C1335     Br1342   1.940       .  S
C1336      C1337   1.420       .  A
C1337      C1338   1.413       .  A
C1337     Br1344   1.937       .  S
C1338      C1339   1.416       .  A
C1338     Br1343   1.933       .  S
C1339      C1340   1.409       .  A
C1340     Br1341   1.929       .  S
C1345      C1346   1.435       .  A
C1345      C1350   1.409       .  A
C1345     Br1352   1.941       .  S
C1346      C1347   1.426       .  A
C1347      C1348   1.408       .  A
C1347     Br1354   1.934       .  S
C1348      C1349   1.403       .  A
C1348     Br1353   1.936       .  S
C1349      C1350   1.401       .  A
C1350     Br1351   1.936       .  S
C1355      C1356   1.413       .  A
C1355      C1360   1.404       .  A
C1355     Br1362   1.925       .  S
C1356      C1357   1.406       .  A
C1357      C1358   1.405       .  A
C1357     Br1364   1.922       .  S
C1358      C1359   1.407       .  A
C1358     Br1363   1.929       .  S
C1359      C1360   1.403       .  A
C1360     Br1361   1.931       .  S
C1365      C1366   1.407       .  A
C1365      C1370   1.406       .  A
C1365     Br1372   1.931       .  S
C1366      C1367   1.405       .  A
C1367      C1368   1.406       .  A
C1367     Br1374   1.931       .  S
C1368      C1369   1.417       .  A
C1368     Br1373   1.934       .  S
C1369      C1370   1.414       .  A
C1370     Br1371   1.932       .  S
C1375      C1376   1.410       .  A
C1375      C1380   1.408       .  A
C1375     Br1382   1.927       .  S
C1376      C1377   1.403       .  A
C1377      C1378   1.408       .  A
C1377     Br1384   1.925       .  S
C1378      C1379   1.415       .  A
C1378     Br1383   1.924       .  S
C1379      C1380   1.409       .  A
C1380     Br1381   1.930       .  S
C1385      C1386   1.414       .  A
C1385      C1390   1.420       .  A
C1385     Br1392   1.929       .  S
C1386      C1387   1.404       .  A
C1387      C1388   1.397       .  A
C1387     Br1394   1.940       .  S
C1388      C1389   1.423       .  A
C1388     Br1393   1.937       .  S
C1389      C1390   1.418       .  A
C1390     Br1391   1.930       .  S
C1395      C1396   1.422       .  A
C1395      C1400   1.406       .  A
C1395     Br1402   1.937       .  S
C1396      C1397   1.423       .  A
C1397      C1398   1.412       .  A
C1397     Br1404   1.936       .  S
C1398      C1399   1.411       .  A
C1398     Br1403   1.934       .  S
C1399      C1400   1.410       .  A
C1400     Br1401   1.939       .  S
C1405      C1406   1.405       .  A
C1405      C1410   1.398       .  A
C1405     Br1412   1.936       .  S
C1406      C1407   1.413       .  A
C1407      C1408   1.411       .  A
C1407     Br1414   1.924       .  S
C1408      C1409   1.406       .  A
C1408     Br1413   1.922       .  S
C1409      C1410   1.410       .  A
C1410     Br1411   1.917       .  S
C1415      C1416   1.406       .  A
C1415      C1420   1.406       .  A
C1415     Br1422   1.928       .  S
C1416      C1417   1.405       .  A
C1417      C1418   1.407       .  A
C1417     Br1424   1.933       .  S
C1418      C1419   1.418       .  A
C1418     Br3087   1.933       .  S
C1419      C1420   1.414       .  A
C1420     Br1421   1.932       .  S
Br1423     C3082   1.933   1_554  S
C1425      C1426   1.416       .  A
C1425      C1430   1.410       .  A
C1425     Br3096   1.932       .  S
C1426      C1785   1.485   1_554  S
C1426      C1427   1.415       .  A
C1427      C1428   1.402       .  A
C1427     Br1434   1.924       .  S
C1428      C1429   1.406       .  A
C1428     Br1433   1.935       .  S
C1429      C1430   1.409       .  A
C1430     Br1431   1.927       .  S
Br1432     C3089   1.934       .  S
C1435      C1436   1.418       .  A
C1435      C1440   1.402       .  A
C1435     Br1442   1.937       .  S
C1436      C1437   1.420       .  A
C1437      C1438   1.412       .  A
C1437     Br1444   1.929       .  S
C1438      C1439   1.405       .  A
C1438     Br1443   1.931       .  S
C1439      C1440   1.403       .  A
C1440     Br1441   1.927       .  S
C1445      C1446   1.421       .  A
C1445      C1450   1.413       .  A
C1445     Br1452   1.939       .  S
C1446      C1447   1.419       .  A
C1447      C1448   1.409       .  A
C1447     Br1454   1.940       .  S
C1448      C1449   1.417       .  A
C1448     Br1453   1.936       .  S
C1449      C1450   1.419       .  A
C1450     Br1451   1.940       .  S
C1455      C1456   1.404       .  A
C1455      C1460   1.405       .  A
C1455     Br1462   1.930       .  S
C1456      C1457   1.404       .  A
C1457      C1458   1.405       .  A
C1457     Br1464   1.931       .  S
C1458      C1459   1.416       .  A
C1458     Br1463   1.930       .  S
C1459      C1460   1.415       .  A
C1460     Br1461   1.933       .  S
C1465      C1466   1.425       .  A
C1465      C1470   1.416       .  A
C1465     Br1472   1.932       .  S
C1466      C1467   1.425       .  A
C1467      C3132   1.401       .  A
C1467     Br1474   1.939       .  S
C1468      C1469   1.400       .  A
C1468      C3131   1.402   1_554  A
C1468     Br1473   1.940       .  S
C1469      C3134   1.403   1_554  A
C1470      C3133   1.407       .  A
C1470     Br1471   1.927       .  S
C1475      C1476   1.409       .  A
C1475      C1480   1.406       .  A
C1475     Br1482   1.928       .  S
C1476      C1477   1.408       .  A
C1477      C1478   1.405       .  A
C1477     Br1484   1.929       .  S
C1478      C1479   1.406       .  A
C1478     Br1483   1.928       .  S
C1479      C1480   1.406       .  A
C1480     Br1481   1.929       .  S
C1485      C1486   1.409       .  A
C1485      C1490   1.400       .  A
C1485     Br1492   1.933       .  S
C1486      C1487   1.415       .  A
C1487      C1488   1.405       .  A
C1487     Br1494   1.933       .  S
C1488      C1489   1.406       .  A
C1488     Br1493   1.932       .  S
C1489      C1490   1.406       .  A
C1490     Br1491   1.924       .  S
C1495      C1496   1.416       .  A
C1495      C1500   1.393       .  A
C1495     Br1502   1.940       .  S
C1496      C1497   1.410       .  A
C1497      C1498   1.413       .  A
C1497     Br1504   1.926       .  S
C1498      C1499   1.410       .  A
C1498     Br1503   1.927       .  S
C1499      C1500   1.415       .  A
C1500     Br1501   1.949       .  S
C1505      C1506   1.417       .  A
C1505      C1510   1.413       .  A
C1505     Br1512   1.934       .  S
C1506      C1507   1.416       .  A
C1507      C1508   1.415       .  A
C1507     Br1514   1.933       .  S
C1508      C1509   1.416       .  A
C1508     Br1513   1.931       .  S
C1509      C1510   1.415       .  A
C1510     Br1511   1.934       .  S
C1515      C1516   1.410       .  A
C1515      C1520   1.413       .  A
C1515     Br1522   1.926       .  S
C1516      C3181   1.410       .  A
C1517      C1518   1.407       .  A
C1517      C3180   1.412   1_554  A
C1517     Br1524   1.929       .  S
C1518      C1519   1.407       .  A
C1518     Br1523   1.930       .  S
C1519      C3184   1.411   1_554  A
C1520      C3183   1.411       .  A
C1520     Br1521   1.929       .  S
C1525      C1526   1.409       .  A
C1525      C1530   1.409       .  A
C1525     Br1532   1.936       .  S
C1526      C1527   1.409       .  A
C1527      C1528   1.414       .  A
C1527     Br1534   1.926       .  S
C1528      C1529   1.423       .  A
C1528     Br1533   1.936       .  S
C1529      C1530   1.426       .  A
C1530     Br1531   1.937       .  S
C1535      C1536   1.403       .  A
C1535      C1540   1.410       .  A
C1535     Br1542   1.922       .  S
C1536      C1537   1.407       .  A
C1537      C1538   1.408       .  A
C1537     Br1544   1.926   1_554  S
C1538      C1539   1.409       .  A
C1538     Br1543   1.928       .  S
C1539      C1540   1.413       .  A
C1540     Br1541   1.927       .  S
C1545      C1546   1.417       .  A
C1545      C1550   1.407       .  A
C1545     Br1552   1.930       .  S
C1546      C1547   1.423       .  A
C1547      C1548   1.404       .  A
C1547     Br1554   1.940       .  S
C1548      C1549   1.404       .  A
C1548     Br1553   1.935       .  S
C1549      C1550   1.406       .  A
C1550     Br1551   1.933       .  S
C1555      C1556   1.412       .  A
C1555      C1560   1.411       .  A
C1555     Br1562   1.931       .  S
C1556      C1557   1.406       .  A
C1557      C1558   1.407       .  A
C1557     Br1564   1.932       .  S
C1558      C1559   1.415       .  A
C1558     Br1563   1.925       .  S
C1559      C1560   1.414       .  A
C1560     Br1561   1.933       .  S
C1565      C1566   1.405       .  A
C1565      C1570   1.416       .  A
C1565     Br1572   1.930       .  S
C1566      C1567   1.404       .  A
C1567      C1568   1.407       .  A
C1567     Br1574   1.941       .  S
C1568      C1569   1.430       .  A
C1568     Br1573   1.937       .  S
C1569      C1570   1.425       .  A
C1570     Br1571   1.932       .  S
C1575      C1576   1.411       .  A
C1575      C1580   1.405       .  A
C1575     Br1582   1.925       .  S
C1576      C1577   1.416       .  A
C1577      C1578   1.411       .  A
C1577     Br1584   1.932       .  S
C1578      C1579   1.405       .  A
C1578     Br1583   1.921       .  S
C1579      C1580   1.407       .  A
C1580     Br1581   1.927       .  S
C1585      C1586   1.403       .  A
C1585      C1590   1.404       .  A
C1585     Br1592   1.933       .  S
C1586      C1587   1.408       .  A
C1587      C1588   1.410       .  A
C1587     Br1594   1.930       .  S
C1588      C1589   1.415       .  A
C1588     Br1593   1.930       .  S
C1589      C1590   1.419       .  A
C1590     Br1591   1.935       .  S
C1595      C1596   1.416       .  A
C1595      C1600   1.406       .  A
C1595     Br1602   1.935       .  S
C1596      C1597   1.416       .  A
C1597      C1598   1.415       .  A
C1597     Br1604   1.930       .  S
C1598      C1599   1.410       .  A
C1598     Br1603   1.927       .  S
C1599      C1600   1.409       .  A
C1600     Br1601   1.923       .  S
C1605      C1606   1.417       .  A
C1605      C1610   1.405       .  A
C1605     Br1612   1.929       .  S
C1606      C1607   1.411       .  A
C1607      C1608   1.397       .  A
C1607     Br1614   1.929       .  S
C1608      C1609   1.413       .  A
C1608     Br1613   1.937       .  S
C1609      C1610   1.408       .  A
C1610     Br1611   1.934       .  S
C1615      C1616   1.404       .  A
C1615      C1620   1.399       .  A
C1615     Br1622   1.921       .  S
C1616      C1617   1.399       .  A
C1617      C1618   1.404       .  A
C1617     Br1624   1.929       .  S
C1618      C1619   1.419       .  A
C1618     Br1623   1.925       .  S
C1619      C1620   1.410       .  A
C1620     Br1621   1.934       .  S
C1625      C1626   1.407       .  A
C1625      C1630   1.414       .  A
C1625     Br1632   1.929       .  S
C1626      C1627   1.405       .  A
C1627      C1628   1.398       .  A
C1627     Br1634   1.940       .  S
C1628      C1629   1.420       .  A
C1628     Br1633   1.933       .  S
C1629      C1630   1.417       .  A
C1630     Br1631   1.928       .  S
C1635      C1636   1.407       .  A
C1635      C1640   1.406       .  A
C1635     Br1642   1.932       .  S
C1636      C1637   1.407       .  A
C1637      C1638   1.403       .  A
C1637     Br1644   1.929       .  S
C1638      C1639   1.406       .  A
C1638     Br1643   1.928       .  S
C1639      C1640   1.410       .  A
C1640     Br1641   1.931       .  S
C1645      C1646   1.420       .  A
C1645      C1650   1.408       .  A
C1645     Br1652   1.939       .  S
C1646      C1647   1.422       .  A
C1647      C1648   1.412       .  A
C1647     Br1654   1.941       .  S
C1648      C1649   1.420       .  A
C1648     Br1653   1.941       .  S
C1649      C1650   1.413       .  A
C1650     Br1651   1.930       .  S
C1655      C1656   1.407       .  A
C1655      C1660   1.404       .  A
C1655     Br1662   1.931       .  S
C1656      C1657   1.406       .  A
C1657      C1658   1.408       .  A
C1657     Br1664   1.932       .  S
C1658      C1659   1.416       .  A
C1658     Br1663   1.930       .  S
C1659      C1660   1.413       .  A
C1660     Br1661   1.934       .  S
Fe1665     O1681   2.055       .  S
Fe1665     O1671   2.062       .  S
Fe1665     O1678   2.068       .  S
Fe1665     O1670   2.026       .  S
Fe1665     O1676   1.930       .  S
Fe1666     O1669   2.050       .  S
Fe1666     O1673   2.071       .  S
Fe1666     O1677   2.054       .  S
Fe1666     O1682   2.058       .  S
Fe1666     O1676   1.930       .  S
Fe1667     O1685   2.093       .  S
Fe1667     O1672   2.066       .  S
Fe1667     O1679   2.054       .  S
Fe1667     O1668   2.092       .  S
Fe1667     O1676   1.948       .  S
O1668      C1675   1.271       .  A
O1669      C1683   1.265       .  A
O1670      C1675   1.262       .  A
O1671      C1674   1.267       .  A
O1672      C1684   1.270       .  A
O1673      C1686   1.265       .  A
C1674      O1679   1.271       .  A
C1674      C3273   1.473       .  S
C1675      C3290   1.469       .  S
O1677      C1680   1.271       .  A
O1678      C1680   1.270       .  A
C1680      C3283   1.472       .  S
O1681      C1686   1.265       .  A
O1682      C1684   1.268       .  A
C1683      O1685   1.274       .  A
C1683      C3310   1.500       .  S
C1684      C3300   1.461       .  S
C1686      C3320   1.470       .  S
Fe1687     O1703   2.058       .  S
Fe1687     O1693   2.045       .  S
Fe1687     O1700   2.066       .  S
Fe1687     O1692   2.047       .  S
Fe1687     O1698   1.968       .  S
Fe1688     O1691   2.060       .  S
Fe1688     O1695   2.069       .  S
Fe1688     O1699   2.090       .  S
Fe1688     O1704   2.056       .  S
Fe1688     O1698   1.958       .  S
Fe1689     O1707   2.073       .  S
Fe1689     O1694   2.078       .  S
Fe1689     O1701   2.102       .  S
Fe1689     O1690   2.081       .  S
Fe1689     O1698   1.972       .  S
O1690      C1697   1.268       .  A
O1691      C1705   1.271       .  A
O1692      C1697   1.259       .  A
O1693      C1696   1.269       .  A
O1694      C1706   1.271       .  A
O1695      C1708   1.264       .  A
C1696      O1701   1.278       .  A
C1696      C3230   1.475       .  S
C1697      C3293   1.487       .  S
O1699      C1702   1.276       .  A
O1700      C1702   1.271       .  A
C1702      C3220   1.481       .  S
O1703      C1708   1.262       .  A
O1704      C1706   1.268       .  A
C1705      O1707   1.272       .  A
C1705      C3253   1.485       .  S
C1706      C3240   1.482       .  S
C1708      C3260   1.487       .  S
Fe1709     O1715   2.057       .  S
Fe1709     O1722   2.073       .  S
Fe1709     O1714   2.041       .  S
Fe1709     O1720   1.985       .  S
Fe1710     O1713   2.076       .  S
Fe1710     O1717   2.054       .  S
Fe1711     O1716   2.086       .  S
Fe1711     O1723   2.090       .  S
Fe1711     O1712   2.073       .  S
Fe1711     O1720   1.989       .  S
O1712      C1719   1.271       .  A
O1713      C1727   1.274       .  A
O1714      C1719   1.263       .  A
O1715      C1718   1.265       .  A
O1716      C1728   1.272       .  A
O1717      C1730   1.267       .  A
C1718      O1723   1.271       .  A
C1718      C3180   1.484       .  S
C1719      C3280   1.463       .  S
O1721      C1724   1.266   1_554  A
O1722      C1724   1.269       .  A
C1724      C3190   1.489       .  S
O1725      C1730   1.263       .  A
O1726      C1728   1.265       .  A
C1727      O1729   1.269       .  A
C1727      C3200   1.479       .  S
C1728      C3210   1.492       .  S
C1730      C3270   1.473       .  S
Fe1731     O1737   2.067       .  S
Fe1731     O1744   2.093       .  S
Fe1731     O1736   2.058       .  S
Fe1731     O1742   1.925       .  S
Fe1732     O1743   2.027       .  S
Fe1732     O1748   2.085       .  S
Fe1732     O1742   1.914       .  S
Fe1733     O1751   2.116       .  S
Fe1733     O1738   2.067       .  S
Fe1733     O1745   2.076       .  S
Fe1733     O1734   2.107       .  S
Fe1733     O1742   1.946       .  S
O1734      C1741   1.280       .  A
O1735      C1749   1.250       .  A
O1736      C1741   1.273       .  A
O1737      C1740   1.270       .  A
O1738      C1750   1.268       .  A
O1739      C1752   1.263       .  A
C1740      O1745   1.271       .  A
C1740      C3183   1.475       .  S
C1741      C3223   1.496       .  S
O1743      C1746   1.264       .  A
O1744      C1746   1.275       .  A
C1746      C3153   1.461       .  S
O1747      C1752   1.269       .  A
O1748      C1750   1.267       .  A
C1749      C3160   1.479       .  S
C1750      C3173   1.491       .  S
C1752      C3233   1.508       .  S
Fe1753     O1769   2.080       .  S
Fe1753     O1759   2.080       .  S
Fe1753     O1766   2.110       .  S
Fe1753     O1758   2.053       .  S
Fe1753     O1764   1.930       .  S
Fe1754     O1757   2.037       .  S
Fe1754     O1761   2.073       .  S
Fe1754     O1765   2.034       .  S
Fe1754     O1770   2.106       .  S
Fe1754     O1764   1.926       .  S
Fe1755     O1773   2.108       .  S
Fe1755     O1760   2.061       .  S
Fe1755     O1767   2.053       .  S
Fe1755     O1756   2.099       .  S
Fe1755     O1764   1.951       .  S
O1756      C1763   1.278       .  A
O1757      C1771   1.261       .  A
O1758      C1763   1.273       .  A
O1759      C1762   1.271       .  A
O1760      C1772   1.266       .  A
O1761      C1774   1.263       .  A
C1762      O1767   1.265       .  A
C1762      C3140   1.469       .  S
C1763      C3123   1.489       .  S
O1765      C1768   1.269       .  A
O1766      C1768   1.281       .  A
C1768      C3113   1.499       .  S
O1769      C1774   1.267       .  A
O1770      C1772   1.274       .  A
C1771      O1773   1.277       .  A
C1771      C3163   1.474       .  S
C1772      C3263   1.486       .  S
C1774      C3130   1.502       .  S
Fe1775     O1791   2.067       .  S
Fe1775     O1781   2.055       .  S
Fe1775     O1788   2.063       .  S
Fe1775     O1780   2.050       .  S
Fe1775     O1786   1.979       .  S
Fe1776     O1779   2.052       .  S
Fe1776     O1783   2.058       .  S
Fe1776     O1787   2.077       .  S
Fe1776     O1792   2.060       .  S
Fe1776     O1786   1.961       .  S
Fe1777     O1795   2.081       .  S
Fe1777     O1782   2.067       .  S
Fe1777     O1789   2.071       .  S
Fe1777     O1778   2.085       .  S
Fe1777     O1786   1.982       .  S
O1778      C1785   1.274       .  A
O1779      C1793   1.269       .  A
O1780      C1785   1.268       .  A
O1781      C1784   1.265       .  A
O1782      C1794   1.266       .  A
O1783      C1796   1.268       .  A
C1784      O1789   1.267       .  A
C1784      C3143   1.472       .  S
O1787      C1790   1.270       .  A
O1788      C1790   1.264       .  A
C1790      C3080   1.480       .  S
O1791      C1796   1.270       .  A
O1792      C1794   1.266       .  A
C1793      O1795   1.272       .  A
C1793      C3070   1.475       .  S
C1794      C3060   1.502       .  S
C1796      C3100   1.483       .  S
Fe1797     O1813   2.056       .  S
Fe1797     O1803   2.081       .  S
Fe1797     O1810   2.080       .  S
Fe1797     O1802   2.032       .  S
Fe1797     O1808   1.958       .  S
Fe1798     O1801   2.060       .  S
Fe1798     O1805   2.085       .  S
Fe1798     O1809   2.061       .  S
Fe1798     O1814   2.075       .  S
Fe1798     O1808   1.955       .  S
Fe1799     O1817   2.070       .  S
Fe1799     O1804   2.072       .  S
Fe1799     O1811   2.060       .  S
Fe1799     O1800   2.083       .  S
Fe1799     O1808   1.975       .  S
O1800      C1807   1.269       .  A
O1801      C1815   1.271       .  A
O1802      C1807   1.264       .  A
O1803      C1806   1.272       .  A
O1804      C1816   1.269       .  A
O1805      C1818   1.268       .  A
C1806      O1811   1.270       .  A
C1806      C3133   1.475       .  S
C1807      C3050   1.478       .  S
O1809      C1812   1.272       .  A
O1810      C1812   1.273       .  A
C1812      C3120   1.470       .  S
O1813      C1818   1.264       .  A
O1814      C1816   1.270       .  A
C1815      O1817   1.271       .  A
C1815      C3033   1.480       .  S
C1816      C3040   1.479       .  S
C1818      C3170   1.489       .  S
Fe1819     O1835   2.054       .  S
Fe1819     O1825   2.042       .  S
Fe1819     O1832   2.066       .  S
Fe1819     O1824   2.051       .  S
Fe1819     O1830   1.964       .  S
Fe1820     O1823   2.050       .  S
Fe1820     O1827   2.097       .  S
Fe1820     O1831   2.058       .  S
Fe1820     O1836   2.068       .  S
Fe1820     O1830   1.958       .  S
Fe1821     O1839   2.074       .  S
Fe1821     O1826   2.072       .  S
Fe1821     O1833   2.087       .  S
Fe1821     O1822   2.084       .  S
Fe1821     O1830   1.963       .  S
O1822      C1829   1.271       .  A
O1823      C1837   1.265       .  A
O1824      C1829   1.261       .  A
O1825      C1828   1.266       .  A
O1826      C1838   1.268       .  A
O1827      C1840   1.274       .  A
C1828      O1833   1.273       .  A
C1828      C3103   1.470       .  S
C1829      C3053   1.490       .  S
O1831      C1834   1.268       .  A
O1832      C1834   1.270       .  A
C1834      C3093   1.472       .  S
O1835      C1840   1.263       .  A
O1836      C1838   1.271       .  A
C1837      O1839   1.273       .  A
C1837      C3010   1.498       .  S
C1838      C3020   1.480       .  S
C1840      C3003   1.495       .  S
Fe1841     O1857   2.049       .  S
Fe1841     O1847   2.076       .  S
Fe1841     O1846   2.044       .  S
Fe1841     O1852   1.958       .  S
Fe1842     O1853   2.049       .  S
Fe1842     O1858   2.055       .  S
Fe1843     O1861   2.097       .  S
Fe1843     O1855   2.050       .  S
Fe1843     O1844   2.104       .  S
Fe1843     O1852   1.975       .  S
O1844      C1851   1.273       .  A
O1845      C1859   1.269       .  A
O1846      C1851   1.264       .  A
O1847      C1850   1.272       .  A
O1848      C1860   1.270       .  A
O1849      C1862   1.266   1_554  A
C1850      O1855   1.268       .  A
C1850      C2970   1.466       .  S
C1851      C2993   1.494       .  S
O1853      C1856   1.269       .  A
O1854      C1856   1.272       .  A
C1856      C2980   1.469       .  S
O1857      C1862   1.265       .  A
O1858      C1860   1.268       .  A
C1859      O1861   1.275       .  A
C1859      C3083   1.492       .  S
C1860      C3023   1.462       .  S
C1862      C2960   1.479       .  S
Fe1863     O1879   2.050       .  S
Fe1863     O1869   2.060       .  S
Fe1863     O1868   2.048       .  S
Fe1863     O1874   1.966       .  S
Fe1864     O1867   2.050       .  S
Fe1864     O1871   2.079       .  S
Fe1864     O1874   1.968       .  S
Fe1865     O1883   2.119       .  S
Fe1865     O1870   2.066       .  S
Fe1865     O1877   2.074       .  S
Fe1865     O1866   2.116       .  S
Fe1865     O1874   1.972       .  S
O1866      C1873   1.280       .  A
O1867      C1881   1.271       .  A
O1868      C1873   1.265       .  A
O1869      C1872   1.266       .  A
O1871      C1884   1.266       .  A
C1872      O1877   1.267       .  A
C1872      C2950   1.492       .  S
C1873      C2990   1.514       .  S
O1875      C1878   1.267       .  A
O1876      C1878   1.274       .  A
C1878      C2943   1.462       .  S
O1879      C1884   1.263       .  A
O1880      C1882   1.265       .  A
C1881      O1883   1.287       .  A
C1881      C2930   1.481       .  S
C1882      C2923   1.479       .  S
C1884      C2913   1.487       .  S
Fe1885     O1901   2.078       .  S
Fe1885     O1891   2.056       .  S
Fe1885     O1898   2.049       .  S
Fe1885     O1890   2.074       .  S
Fe1885     O1896   1.957       .  S
Fe1886     O1889   2.063       .  S
Fe1886     O1893   2.050       .  S
Fe1886     O1897   2.067       .  S
Fe1886     O1902   2.057       .  S
Fe1886     O1896   1.940       .  S
Fe1887     O1905   2.060       .  S
Fe1887     O1892   2.093       .  S
Fe1887     O1899   2.086       .  S
Fe1887     O1888   2.058       .  S
Fe1887     O1896   1.963       .  S
O1888      C1895   1.272       .  A
O1889      C1903   1.273       .  A
O1890      C1895   1.272       .  A
O1891      C1894   1.267       .  A
O1892      C1904   1.271       .  A
O1893      C1906   1.268       .  A
C1894      O1899   1.271       .  A
C1894      C2900   1.482       .  S
C1895      C2983   1.478       .  S
O1897      C1900   1.268       .  A
O1898      C1900   1.267       .  A
C1900      C3013   1.471       .  S
O1901      C1906   1.269       .  A
O1902      C1904   1.266       .  A
C1903      O1905   1.269       .  A
C1903      C2880   1.464       .  S
C1904      C2893   1.497       .  S
C1906      C2973   1.488       .  S
Fe1907     O1923   2.080       .  S
Fe1907     O1913   2.066       .  S
Fe1907     O1920   2.066       .  S
Fe1907     O1912   2.050       .  S
Fe1907     O1918   1.971       .  S
Fe1908     O1911   2.038       .  S
Fe1908     O1915   2.068       .  S
Fe1908     O1919   2.049       .  S
Fe1908     O1924   2.061       .  S
Fe1908     O1918   1.976       .  S
Fe1909     O1927   2.064       .  S
Fe1909     O1914   2.085       .  S
Fe1909     O1921   2.069       .  S
Fe1909     O1910   2.060       .  S
Fe1909     O1918   1.994       .  S
O1910      C1917   1.266       .  A
O1911      C1925   1.267       .  A
O1912      C1917   1.268       .  A
O1913      C1916   1.269       .  A
O1914      C1926   1.273       .  A
O1915      C1928   1.270       .  A
C1916      O1921   1.267       .  A
C1916      C2903   1.475       .  S
C1917      C2940   1.486       .  S
O1919      C1922   1.262       .  A
O1920      C1922   1.267       .  A
C1922      C2870   1.485       .  S
O1923      C1928   1.272       .  A
O1924      C1926   1.268       .  A
C1925      O1927   1.264       .  A
C1925      C2850   1.475       .  S
C1926      C2860   1.478       .  S
C1928      C2953   1.482       .  S
Fe1929     O1945   2.050   1_455  S
Fe1929     O1935   2.075       .  S
Fe1929     O1942   2.096       .  S
Fe1929     O1934   2.048       .  S
Fe1929     O1940   1.969       .  S
Fe1930     O1933   2.056       .  S
Fe1930     O1937   2.078       .  S
Fe1930     O1941   2.042       .  S
Fe1930     O1946   2.069       .  S
Fe1930     O1940   1.952       .  S
Fe1931     O1949   2.083       .  S
Fe1931     O1936   2.067       .  S
Fe1931     O1943   2.054       .  S
Fe1931     O1932   2.069       .  S
Fe1931     O1940   1.980       .  S
O1932      C1939   1.267       .  A
O1933      C1947   1.265       .  A
O1934      C1939   1.266       .  A
O1935      C1938   1.273       .  A
O1936      C1948   1.266       .  A
O1937      C1950   1.269   1_455  A
C1938      O1943   1.268       .  A
C1939      C2820   1.471       .  S
O1941      C1944   1.265       .  A
O1942      C1944   1.272       .  A
C1944      C2810   1.503   1_455  S
O1945      C1950   1.264       .  A
O1946      C1948   1.272       .  A
C1947      O1949   1.273       .  A
C1947      C2833   1.477       .  S
C1948      C2840   1.478       .  S
C1950      C3213   1.475       .  S
Fe1951     O1967   2.094   1_455  S
Fe1951     O1957   2.039       .  S
Fe1951     O1964   2.052       .  S
Fe1951     O1956   2.077       .  S
Fe1951     O1962   1.949       .  S
Fe1952     O1955   2.082       .  S
Fe1952     O1959   2.066       .  S
Fe1952     O1963   2.083       .  S
Fe1952     O1968   2.053       .  S
Fe1952     O1962   1.951       .  S
Fe1953     O1971   2.049       .  S
Fe1953     O1958   2.101       .  S
Fe1953     O1965   2.094       .  S
Fe1953     O1954   2.052       .  S
Fe1953     O1962   1.958       .  S
O1954      C1961   1.267       .  A
O1955      C1969   1.273       .  A
O1956      C1961   1.273       .  A
O1957      C1960   1.265       .  A
O1958      C1970   1.276       .  A
O1959      C1972   1.268   1_455  A
C1960      O1965   1.272       .  A
C1960      C2780   1.489       .  S
C1961      C2823   1.474       .  S
O1963      C1966   1.273       .  A
O1964      C1966   1.266       .  A
C1966      C2790   1.472   1_455  S
O1967      C1972   1.274       .  A
O1968      C1970   1.268       .  A
C1969      O1971   1.264       .  A
C1969      C2873   1.486       .  S
C1970      C2920   1.489       .  S
C1972      C2770   1.495       .  S
Fe1973     O1989   2.075   1_655  S
Fe1973     O1979   2.029       .  S
Fe1973     O1986   2.044   1_655  S
Fe1973     O1978   2.068       .  S
Fe1973     O1984   1.967       .  S
Fe1974     O1977   2.055       .  S
Fe1974     O1981   2.062       .  S
Fe1974     O1985   2.060   1_655  S
Fe1974     O1990   2.066       .  S
Fe1974     O1984   1.966       .  S
Fe1975     O1993   2.077       .  S
Fe1975     O1980   2.072       .  S
Fe1975     O1987   2.080       .  S
Fe1975     O1976   2.072       .  S
Fe1975     O1984   1.985       .  S
O1976      C1983   1.270       .  A
O1977      C1991   1.266       .  A
O1978      C1983   1.269       .  A
O1979      C1982   1.263       .  A
O1980      C1992   1.271       .  A
O1981      C1994   1.271   1_655  A
C1982      O1987   1.269       .  A
C1982      C2750   1.473       .  S
C1983      C2813   1.476       .  S
O1985      C1988   1.264       .  A
O1986      C1988   1.263       .  A
C1988      C2760   1.476       .  S
O1989      C1994   1.271       .  A
O1990      C1992   1.272       .  A
C1991      O1993   1.270       .  A
C1991      C3203   1.474       .  S
C1992      C3323   1.481       .  S
C1994      C2803   1.472       .  S
Fe1995     O2011   2.050       .  S
Fe1995     O2001   2.073   1_455  S
Fe1995     O2008   2.064       .  S
Fe1995     O2000   2.044   1_455  S
Fe1995     O2006   1.955   1_455  S
Fe1996     O1999   2.064       .  S
Fe1996     O2003   2.079       .  S
Fe1996     O2007   2.075   1_655  S
Fe1996     O2012   2.079       .  S
Fe1996     O2006   1.955       .  S
Fe1997     O2015   2.086       .  S
Fe1997     O2002   2.075       .  S
Fe1997     O2009   2.077       .  S
Fe1997     O1998   2.082       .  S
Fe1997     O2006   1.963       .  S
O1998      C2005   1.267       .  A
O1999      C2013   1.266       .  A
O2000      C2005   1.263       .  A
O2001      C2004   1.272       .  A
O2002      C2014   1.275       .  A
O2003      C2016   1.273   1_655  A
C2004      O2009   1.276       .  A
C2004      C2753   1.485       .  S
C2005      C2793   1.485       .  S
O2007      C2010   1.268       .  A
O2008      C2010   1.267       .  A
C2010      C2933   1.484       .  S
O2011      C2016   1.267       .  A
O2012      C2014   1.277       .  A
C2013      O2015   1.267       .  A
C2013      C2743   1.481       .  S
C2014      C2730   1.493       .  S
C2016      C2783   1.469       .  S
Fe2017     O2033   2.049       .  S
Fe2017     O2023   2.078       .  S
Fe2017     O2030   2.071       .  S
Fe2017     O2022   2.025       .  S
Fe2017     O2028   1.933       .  S
Fe2018     O2021   2.049       .  S
Fe2018     O2025   2.105       .  S
Fe2018     O2029   2.063       .  S
Fe2018     O2034   2.080       .  S
Fe2018     O2028   1.930       .  S
Fe2019     O2037   2.069       .  S
Fe2019     O2024   2.079       .  S
Fe2019     O2031   2.067       .  S
Fe2019     O2020   2.105       .  S
Fe2019     O2028   1.948       .  S
O2020      C2027   1.277       .  A
O2021      C2035   1.268       .  A
O2022      C2027   1.264       .  A
O2023      C2026   1.266       .  A
O2024      C2036   1.274       .  A
O2025      C2038   1.277       .  A
C2026      O2031   1.268       .  A
C2026      C2700   1.492       .  S
C2027      C2723   1.473       .  S
O2029      C2032   1.268       .  A
O2030      C2032   1.266       .  A
C2032      C2710   1.471       .  S
O2033      C2038   1.268       .  A
O2034      C2036   1.274       .  A
C2035      O2037   1.272       .  A
C2035      C3150   1.470       .  S
C2036      C3243   1.479       .  S
C2038      C2690   1.487       .  S
Fe2039     O2055   2.059       .  S
Fe2039     O2045   2.018       .  S
Fe2039     O2052   2.052       .  S
Fe2039     O2044   2.061       .  S
Fe2039     O2050   1.930       .  S
Fe2040     O2043   2.054       .  S
Fe2040     O2047   2.086       .  S
Fe2040     O2051   2.073       .  S
Fe2040     O2056   2.046       .  S
Fe2040     O2050   1.919       .  S
Fe2041     O2059   2.073       .  S
Fe2041     O2046   2.091       .  S
Fe2041     O2053   2.110       .  S
Fe2041     O2042   2.082       .  S
Fe2041     O2050   1.939       .  S
O2042      C2049   1.268       .  A
O2043      C2057   1.269       .  A
O2044      C2049   1.261       .  A
O2045      C2048   1.264       .  A
O2046      C2058   1.274       .  A
O2047      C2060   1.270       .  A
C2048      O2053   1.278       .  A
C2048      C2680   1.489       .  S
C2049      C2720   1.490       .  S
O2051      C2054   1.275       .  A
O2052      C2054   1.271       .  A
C2054      C2673   1.476       .  S
O2055      C2060   1.262       .  A
O2056      C2058   1.269       .  A
C2057      O2059   1.271       .  A
C2057      C2650   1.487       .  S
C2058      C2660   1.476       .  S
C2060      C2890   1.491       .  S
Fe2061     O2077   2.074       .  S
Fe2061     O2067   2.067       .  S
Fe2061     O2074   2.083       .  S
Fe2061     O2066   2.045       .  S
Fe2061     O2072   1.934       .  S
Fe2062     O2065   2.020       .  S
Fe2062     O2069   2.094       .  S
Fe2062     O2073   2.047       .  S
Fe2062     O2078   2.115       .  S
Fe2062     O2072   1.922       .  S
Fe2063     O2081   2.113       .  S
Fe2063     O2068   2.070       .  S
Fe2063     O2075   2.074       .  S
Fe2063     O2064   2.102       .  S
Fe2063     O2072   1.966       .  S
O2064      C2071   1.278       .  A
O2065      C2079   1.252       .  A
O2066      C2071   1.271       .  A
O2067      C2070   1.270       .  A
O2068      C2080   1.269       .  A
O2069      C2082   1.273       .  A
C2070      O2075   1.271       .  A
C2070      C2640   1.480       .  S
C2071      C2713   1.487       .  S
O2073      C2076   1.267       .  A
O2074      C2076   1.272       .  A
C2076      C3250   1.465       .  S
O2077      C2082   1.269       .  A
O2078      C2080   1.274       .  A
C2079      O2081   1.275       .  A
C2079      C2633   1.473       .  S
C2080      C2620   1.493       .  S
C2082      C2703   1.487       .  S
Fe2083     O2099   2.055       .  S
Fe2083     O2089   2.061       .  S
Fe2083     O2096   2.058       .  S
Fe2083     O2088   2.049       .  S
Fe2083     O2094   1.974       .  S
Fe2084     O2087   2.062       .  S
Fe2084     O2091   2.061       .  S
Fe2084     O2095   2.074       .  S
Fe2084     O2100   2.054       .  S
Fe2084     O2094   1.976       .  S
Fe2085     O2103   2.059       .  S
Fe2085     O2090   2.079       .  S
Fe2085     O2097   2.075       .  S
Fe2085     O2086   2.052       .  S
Fe2085     O2094   1.984       .  S
O2086      C2093   1.262       .  A
O2087      C2101   1.269       .  A
O2088      C2093   1.266       .  A
O2089      C2092   1.268       .  A
O2090      C2102   1.272       .  A
O2091      C2104   1.269       .  A
C2092      O2097   1.271       .  A
C2092      C2643   1.476       .  S
O2095      C2098   1.267       .  A
O2096      C2098   1.265       .  A
C2098      C2613   1.480       .  S
O2099      C2104   1.268       .  A
O2100      C2102   1.268       .  A
C2101      O2103   1.263       .  A
C2101      C2883   1.468       .  S
C2102      C2963   1.495       .  S
C2104      C2683   1.467       .  S
Fe2105     O2121   2.054       .  S
Fe2105     O2111   2.062       .  S
Fe2105     O2110   2.051       .  S
Fe2105     O2116   1.973       .  S
Fe2106     O2109   2.053       .  S
Fe2106     O2113   2.068       .  S
Fe2106     O2116   1.975       .  S
Fe2107     O2125   2.108       .  S
Fe2107     O2112   2.069       .  S
Fe2107     O2119   2.070       .  S
Fe2107     O2108   2.108       .  S
Fe2107     O2116   1.983       .  S
O2108      C2115   1.277       .  A
O2109      C2123   1.270       .  A
O2110      C2115   1.264       .  A
O2111      C2114   1.269       .  A
O2113      C2126   1.264       .  A
C2114      O2119   1.268       .  A
C2114      C2560   1.492       .  S
C2115      C2580   1.508       .  S
O2117      C2120   1.267       .  A
O2118      C2120   1.274       .  A
C2120      C2570   1.466       .  S
O2121      C2126   1.263       .  A
O2122      C2124   1.264       .  A
C2123      O2125   1.282       .  A
C2123      C2603   1.481       .  S
C2124      C2590   1.476       .  S
C2126      C2733   1.485       .  S
Fe2127     O2143   2.052       .  S
Fe2127     O2133   2.093       .  S
Fe2127     O2132   2.031   1_556  S
Fe2127     O2138   1.950       .  S
Fe2128     O2139   2.041       .  S
Fe2128     O2144   2.061       .  S
Fe2129     O2147   2.113       .  S
Fe2129     O2141   2.049       .  S
Fe2129     O2130   2.111       .  S
Fe2129     O2138   1.965       .  S
O2130      C2137   1.276       .  A
O2131      C2145   1.266       .  A
O2132      C2137   1.261   1_554  A
O2133      C2136   1.275       .  A
O2134      C2146   1.272       .  A
O2135      C2148   1.270   1_554  A
C2136      O2141   1.266       .  A
C2136      C2550   1.499       .  S
C2137      C2583   1.489   1_556  S
O2139      C2142   1.266       .  A
O2140      C2142   1.269       .  A
C2142      C2540   1.464       .  S
O2143      C2148   1.266       .  A
O2144      C2146   1.271       .  A
C2145      O2147   1.280       .  A
C2145      C2610   1.478       .  S
C2146      C2663   1.464       .  S
C2148      C3063   1.479       .  S
Fe2149     O2165   2.076       .  S
Fe2149     O2155   2.045       .  S
Fe2149     O2162   2.047       .  S
Fe2149     O2154   2.044       .  S
Fe2149     O2160   1.967       .  S
Fe2150     O2153   2.056       .  S
Fe2150     O2157   2.068       .  S
Fe2150     O2161   2.079       .  S
Fe2150     O2166   2.064       .  S
Fe2150     O2160   1.977       .  S
Fe2151     O2169   2.068       .  S
Fe2151     O2156   2.105       .  S
Fe2151     O2163   2.104       .  S
Fe2151     O2152   2.075       .  S
Fe2151     O2160   1.985       .  S
O2152      C2159   1.271       .  A
O2153      C2167   1.267       .  A
O2154      C2159   1.269       .  A
O2155      C2158   1.260       .  A
O2156      C2168   1.280       .  A
O2157      C2170   1.272       .  A
C2158      O2163   1.274       .  A
C2158      C2520   1.504       .  S
C2159      C2573   1.476       .  S
O2161      C2164   1.266       .  A
O2162      C2164   1.261       .  A
C2164      C2530   1.493       .  S
O2165      C2170   1.273       .  A
O2166      C2168   1.271       .  A
C2167      O2169   1.265       .  A
C2167      C2740   1.481       .  S
C2168      C2773   1.484       .  S
C2170      C2563   1.474       .  S
Fe2171     O2187   2.072       .  S
Fe2171     O2177   2.038       .  S
Fe2171     O2184   2.042       .  S
Fe2171     O2176   2.076       .  S
Fe2171     O2182   1.956       .  S
Fe2172     O2175   2.074       .  S
Fe2172     O2179   2.060       .  S
Fe2172     O2183   2.072       .  S
Fe2172     O2188   2.063       .  S
Fe2172     O2182   1.951       .  S
Fe2173     O2191   2.057       .  S
Fe2173     O2178   2.101       .  S
Fe2173     O2185   2.113       .  S
Fe2173     O2174   2.049       .  S
Fe2173     O2182   1.966       .  S
O2174      C2181   1.267       .  A
O2175      C2189   1.271       .  A
O2176      C2181   1.272       .  A
O2177      C2180   1.263       .  A
O2178      C2190   1.276       .  A
O2179      C2192   1.272       .  A
C2180      O2185   1.276       .  A
C2180      C2523   1.493       .  S
C2181      C2543   1.469       .  S
O2183      C2186   1.267       .  A
O2184      C2186   1.261       .  A
C2186      C2653   1.472       .  S
O2187      C2192   1.272       .  A
O2188      C2190   1.269       .  A
C2189      O2191   1.267       .  A
C2189      C3073   1.468       .  S
C2190      C3000   1.510       .  S
C2192      C2553   1.464       .  S
Fe2193     O2209   2.075       .  S
Fe2193     O2199   2.057       .  S
Fe2193     O2206   2.051       .  S
Fe2193     O2198   2.053       .  S
Fe2193     O2204   1.959       .  S
Fe2194     O2197   2.063       .  S
Fe2194     O2201   2.088       .  S
Fe2194     O2205   2.078       .  S
Fe2194     O2210   2.061       .  S
Fe2194     O2204   1.950       .  S
Fe2195     O2213   2.076       .  S
Fe2195     O2200   2.090       .  S
Fe2195     O2207   2.083       .  S
Fe2195     O2196   2.088       .  S
Fe2195     O2204   1.973       .  S
O2196      C2203   1.273       .  A
O2197      C2211   1.271       .  A
O2198      C2203   1.267       .  A
O2199      C2202   1.270       .  A
O2200      C2212   1.273       .  A
O2201      C2214   1.270       .  A
C2202      O2207   1.271       .  A
C2202      C2490   1.476       .  S
C2203      C2510   1.495       .  S
O2205      C2208   1.275       .  A
O2206      C2208   1.268       .  A
C2208      C2503   1.476       .  S
O2209      C2214   1.267       .  A
O2210      C2212   1.270       .  A
C2211      O2213   1.268       .  A
C2211      C3110   1.503       .  S
C2212      C3043   1.484       .  S
C2214      C2623   1.508       .  S
Fe2215     O2231   2.061       .  S
Fe2215     O2221   2.062       .  S
Fe2215     O2228   2.071       .  S
Fe2215     O2220   2.074       .  S
Fe2215     O2226   1.970       .  S
Fe2216     O2219   2.060       .  S
Fe2216     O2223   2.081       .  S
Fe2216     O2227   2.081       .  S
Fe2216     O2232   2.065       .  S
Fe2216     O2226   1.975       .  S
Fe2217     O2235   2.060       .  S
Fe2217     O2222   2.075       .  S
Fe2217     O2229   2.071       .  S
Fe2217     O2218   2.074       .  S
Fe2217     O2226   1.982       .  S
O2218      C2225   1.272       .  A
O2219      C2233   1.273       .  A
O2220      C2225   1.271       .  A
O2221      C2224   1.268       .  A
O2222      C2234   1.266       .  A
O2223      C2236   1.267       .  A
C2224      O2229   1.266       .  A
C2224      C2480   1.485       .  S
C2225      C2513   1.490       .  S
O2227      C2230   1.274       .  A
O2228      C2230   1.272       .  A
C2230      C2473   1.479       .  S
O2231      C2236   1.265       .  A
O2232      C2234   1.268       .  A
C2233      O2235   1.270       .  A
C2233      C2763   1.484       .  S
C2234      C2843   1.478       .  S
C2236      C2463   1.491       .  S
Fe2237     O2243   2.079       .  S
Fe2237     O2250   2.101       .  S
Fe2237     O2242   2.058       .  S
Fe2237     O2248   1.935       .  S
Fe2238     O2249   2.030       .  S
Fe2238     O2254   2.079       .  S
Fe2238     O2248   1.932       .  S
Fe2239     O2257   2.092       .  S
Fe2239     O2244   2.065       .  S
Fe2239     O2251   2.085       .  S
Fe2239     O2240   2.093       .  S
Fe2239     O2248   1.952       .  S
O2240      C2247   1.278       .  A
O2241      C2255   1.261       .  A
O2242      C2247   1.273       .  A
O2243      C2246   1.271       .  A
O2244      C2256   1.268       .  A
O2245      C2258   1.261       .  A
C2246      O2251   1.272       .  A
C2246      C2453   1.489       .  S
C2247      C2500   1.482       .  S
O2249      C2252   1.266       .  A
O2250      C2252   1.278       .  A
C2252      C3030   1.467       .  S
O2253      C2258   1.266       .  A
O2254      C2256   1.265       .  A
C2255      C2630   1.475       .  S
C2256      C2693   1.491       .  S
C2258      C2493   1.506       .  S
Fe2259     O2265   2.071       .  S
Fe2259     O2272   2.087       .  S
Fe2259     O2264   2.052       .  S
Fe2259     O2270   1.932       .  S
Fe2260     O2263   2.035       .  S
Fe2260     O2267   2.078       .  S
Fe2261     O2266   2.071       .  S
Fe2261     O2273   2.087       .  S
Fe2261     O2262   2.109       .  S
Fe2261     O2270   1.956       .  S
O2262      C2269   1.279       .  A
O2263      C2277   1.260       .  A
O2264      C2269   1.271       .  A
O2265      C2268   1.271       .  A
O2266      C2278   1.269       .  A
O2267      C2280   1.273       .  A
C2268      O2273   1.275       .  A
C2268      C2450   1.492       .  S
C2269      C2470   1.497       .  S
O2271      C2274   1.268       .  A
O2272      C2274   1.272       .  A
C2274      C2830   1.484       .  S
O2275      C2280   1.269       .  A
O2276      C2278   1.270       .  A
C2277      O2279   1.279       .  A
C2277      C2433   1.483       .  S
C2278      C2440   1.502       .  S
C2280      C2483   1.479       .  S
Fe2281     O2297   2.071   1_655  S
Fe2281     O2287   2.069       .  S
Fe2281     O2294   2.074   1_655  S
Fe2281     O2286   2.049       .  S
Fe2281     O2292   1.947       .  S
Fe2282     O2285   2.050       .  S
Fe2282     O2289   2.089   1_655  S
Fe2282     O2293   2.046       .  S
Fe2282     O2298   2.082       .  S
Fe2282     O2292   1.933       .  S
Fe2283     O2301   2.102       .  S
Fe2283     O2288   2.053       .  S
Fe2283     O2295   2.060       .  S
Fe2283     O2284   2.103       .  S
Fe2283     O2292   1.950       .  S
O2284      C2291   1.276       .  A
O2285      C2299   1.265       .  A
O2286      C2291   1.268       .  A
O2287      C2290   1.268       .  A
O2288      C2300   1.267       .  A
O2289      C2302   1.272       .  A
C2290      O2295   1.271       .  A
C2291      C2420   1.497       .  S
O2293      C2296   1.267   1_655  A
O2294      C2296   1.267       .  A
C2296      C2410   1.497       .  S
O2297      C2302   1.269       .  A
O2298      C2300   1.273       .  A
C2299      O2301   1.275       .  A
C2299      C3193   1.504       .  S
C2300      C3303   1.466       .  S
C2302      C2443   1.494       .  S
Fe2303     O2319   2.095       .  S
Fe2303     O2309   2.038   1_455  S
Fe2303     O2316   2.054       .  S
Fe2303     O2308   2.099   1_455  S
Fe2303     O2314   1.945   1_455  S
Fe2304     O2307   2.094       .  S
Fe2304     O2311   2.062   1_655  S
Fe2304     O2315   2.095       .  S
Fe2304     O2320   2.057       .  S
Fe2304     O2314   1.953       .  S
Fe2305     O2323   2.064       .  S
Fe2305     O2310   2.086       .  S
Fe2305     O2317   2.080       .  S
Fe2305     O2306   2.068       .  S
Fe2305     O2314   1.965       .  S
O2306      C2313   1.272       .  A
O2307      C2321   1.277       .  A
O2308      C2313   1.279       .  A
O2309      C2312   1.263       .  A
O2310      C2322   1.270       .  A
O2311      C2324   1.266       .  A
C2312      O2317   1.265       .  A
C2312      C2390   1.493       .  S
C2313      C2423   1.491       .  S
O2315      C2318   1.276   1_655  A
O2316      C2318   1.268       .  A
C2318      C2380   1.479       .  S
O2319      C2324   1.275       .  A
O2320      C2322   1.268       .  A
C2321      O2323   1.270       .  A
C2321      C2533   1.495       .  S
C2322      C2593   1.479       .  S
C2324      C2863   1.489       .  S
Fe2325     O2341   2.053   1_455  S
Fe2325     O2331   2.081       .  S
Fe2325     O2338   2.108   1_455  S
Fe2325     O2330   2.028       .  S
Fe2325     O2336   1.942       .  S
Fe2326     O2329   2.026       .  S
Fe2326     O2333   2.066       .  S
Fe2326     O2337   2.037       .  S
Fe2326     O2342   2.131       .  S
Fe2326     O2336   1.917       .  S
Fe2327     O2345   2.128       .  S
Fe2327     O2332   2.060       .  S
Fe2327     O2339   2.075       .  S
Fe2327     O2328   2.091       .  S
Fe2327     O2336   1.971       .  S
O2328      C2335   1.276       .  A
O2329      C2343   1.245       .  A
O2330      C2335   1.264       .  A
O2331      C2334   1.277       .  A
O2332      C2344   1.270       .  A
O2333      C2346   1.268   1_455  A
C2334      O2339   1.274       .  A
C2334      C2370   1.491       .  S
C2335      C2413   1.476       .  S
O2337      C2340   1.268   1_455  A
O2338      C2340   1.281       .  A
C2340      C3313   1.491       .  S
O2341      C2346   1.261       .  A
O2342      C2344   1.283       .  A
C2343      O2345   1.271       .  A
C2343      C2430   1.483       .  S
C2344      C2460   1.505       .  S
C2346      C2403   1.468       .  S
Fe2347     O2363   2.056       .  S
Fe2347     O2353   2.072       .  S
Fe2347     O2360   2.057   1_455  S
Fe2347     O2352   2.053       .  S
Fe2347     O2358   1.974       .  S
Fe2348     O2351   2.061       .  S
Fe2348     O2355   2.074       .  S
Fe2348     O2359   2.069       .  S
Fe2348     O2364   2.071       .  S
Fe2348     O2358   1.975       .  S
Fe2349     O2367   2.080       .  S
Fe2349     O2354   2.069       .  S
Fe2349     O2361   2.084       .  S
Fe2349     O2350   2.076       .  S
Fe2349     O2358   1.983       .  S
O2350      C2357   1.268       .  A
O2351      C2365   1.267       .  A
O2352      C2357   1.267       .  A
O2353      C2356   1.270       .  A
O2354      C2366   1.271       .  A
O2355      C2368   1.274       .  A
C2356      O2361   1.272       .  A
C2356      C2373   1.491       .  S
C2357      C2383   1.489       .  S
O2359      C2362   1.264   1_455  A
O2360      C2362   1.264       .  A
C2362      C2600   1.480       .  S
O2363      C2368   1.270       .  A
O2364      C2366   1.274       .  A
C2365      O2367   1.267       .  A
C2365      C2853   1.480       .  S
C2366      C2910   1.496       .  S
C2368      C2393   1.472   1_455  S
C2369      C2370   1.418       .  A
C2369      C2374   1.416       .  A
C2369     Br2376   1.928       .  S
C2370      C2371   1.410       .  A
C2371      C2372   1.405   1_545  A
C2371     Br2378   1.935       .  S
C2372      C2373   1.412       .  A
C2372     Br2377   1.918       .  S
C2373      C2374   1.411   1_565  A
C2374     Br2375   1.930       .  S
C2379      C2380   1.405       .  A
C2379      C2384   1.410       .  A
C2379     Br2386   1.930       .  S
C2380      C2381   1.406       .  A
C2381     Br2388   1.921   1_455  S
C2382      C2383   1.414       .  A
C2382     Br2387   1.933   1_455  S
C2384     Br2385   1.927   1_556  S
C2389      C2390   1.423       .  A
C2389      C2394   1.412       .  A
C2389     Br2396   1.931       .  S
C2390      C2391   1.414   1_655  A
C2391      C2392   1.400       .  A
C2391     Br2398   1.937       .  S
C2392      C2393   1.404   1_455  A
C2392     Br2397   1.926       .  S
C2393      C2394   1.408       .  A
C2394     Br2395   1.931       .  S
C2399      C2400   1.419   1_455  A
C2399      C2404   1.397       .  A
C2400      C2401   1.415       .  A
C2401      C2402   1.407       .  A
C2401     Br2408   1.931       .  S
C2402      C2403   1.404       .  A
C2402     Br2407   1.922       .  S
C2403      C2404   1.403   1_655  A
C2404     Br2405   1.926       .  S
C2409      C2410   1.429       .  A
C2409      C2414   1.410       .  A
C2409     Br2416   1.937       .  S
C2410      C2411   1.420       .  A
C2411      C2412   1.401       .  A
C2411     Br2418   1.943   1_455  S
C2412      C2413   1.410       .  A
C2412     Br2417   1.935   1_455  S
C2413      C2414   1.405       .  A
C2414     Br2415   1.933       .  S
C2419      C2420   1.418       .  A
C2419      C2424   1.416       .  A
C2419     Br2426   1.932       .  S
C2420      C2421   1.415       .  A
C2421      C2422   1.408       .  A
C2421     Br2428   1.932       .  S
C2422      C2423   1.410   1_545  A
C2422     Br2427   1.933       .  S
C2423      C2424   1.414   1_565  A
C2424     Br2425   1.926   1_545  S
C2429      C2430   1.412       .  A
C2429      C2434   1.418       .  A
C2429     Br2436   1.925       .  S
C2430      C2431   1.418       .  A
C2431      C2432   1.396       .  A
C2431     Br2438   1.951       .  S
C2432      C2433   1.417       .  A
C2432     Br2437   1.939       .  S
C2433      C2434   1.411       .  A
C2434     Br2435   1.924       .  S
C2439      C2440   1.419       .  A
C2439      C2444   1.413       .  A
C2439     Br2446   1.934       .  S
C2440      C2441   1.420       .  A
C2441      C2442   1.414       .  A
C2441     Br2448   1.933       .  S
C2442      C2443   1.412       .  A
C2442     Br2447   1.933       .  S
C2443      C2444   1.411       .  A
C2444     Br2445   1.929       .  S
C2449      C2450   1.416       .  A
C2449      C2454   1.408       .  A
C2449     Br2456   1.934       .  S
C2451      C2452   1.418       .  A
C2451     Br2458   1.927       .  S
C2452      C2453   1.410       .  A
C2452     Br2457   1.928       .  S
C2454     Br2455   1.928       .  S
C2459      C2460   1.414       .  A
C2459      C2464   1.408       .  A
C2459     Br2466   1.915       .  S
C2460      C2461   1.420       .  A
C2461      C2462   1.417       .  A
C2461     Br2468   1.923       .  S
C2462      C2463   1.410       .  A
C2462     Br2467   1.930       .  S
C2463      C2464   1.409       .  A
C2464     Br2465   1.935       .  S
C2469      C2470   1.421       .  A
C2469      C2474   1.415       .  A
C2469     Br2476   1.927       .  S
C2470      C2471   1.414       .  A
C2471      C2472   1.405       .  A
C2471     Br2478   1.932       .  S
C2472      C2473   1.405       .  A
C2472     Br2477   1.926       .  S
C2473      C2474   1.407       .  A
C2474     Br2475   1.929       .  S
C2479      C2480   1.411       .  A
C2479      C2484   1.410       .  A
C2479     Br2486   1.932       .  S
C2480      C2481   1.417       .  A
C2481      C2482   1.406       .  A
C2481     Br2488   1.924       .  S
C2482      C2483   1.406       .  A
C2482     Br2487   1.935       .  S
C2483      C2484   1.410       .  A
C2484     Br2485   1.922       .  S
C2489      C2490   1.405       .  A
C2489      C2494   1.406       .  A
C2489     Br2496   1.940       .  S
C2490      C2491   1.405       .  A
C2491      C2492   1.413       .  A
C2491     Br2498   1.926       .  S
C2492      C2493   1.424       .  A
C2492     Br2497   1.934       .  S
C2493      C2494   1.429       .  A
C2494     Br2495   1.938       .  S
C2499      C2500   1.414       .  A
C2499      C2504   1.404       .  A
C2499     Br2506   1.922       .  S
C2500      C2501   1.410       .  A
C2501      C2502   1.410       .  A
C2501     Br2508   1.930       .  S
C2502      C2503   1.413       .  A
C2502     Br2507   1.931       .  S
C2503      C2504   1.408       .  A
C2504     Br2505   1.937       .  S
C2509      C2510   1.417       .  A
C2509      C2514   1.416       .  A
C2509     Br2516   1.930       .  S
C2510      C2511   1.417       .  A
C2511      C2512   1.405       .  A
C2511     Br2518   1.938       .  S
C2512      C2513   1.412       .  A
C2512     Br2517   1.930       .  S
C2513      C2514   1.414       .  A
C2514     Br2515   1.932       .  S
C2519      C2520   1.424       .  A
C2519      C2524   1.406       .  A
C2519     Br2526   1.942       .  S
C2520      C2521   1.420       .  A
C2521      C2522   1.421       .  A
C2521     Br2528   1.930       .  S
C2522      C2523   1.412       .  A
C2522     Br2527   1.929       .  S
C2523      C2524   1.411       .  A
C2524     Br2525   1.938       .  S
C2529      C2530   1.417       .  A
C2529      C2534   1.409       .  A
C2529     Br2536   1.938       .  S
C2530      C2531   1.414       .  A
C2531      C2532   1.412       .  A
C2531     Br2538   1.929       .  S
C2532      C2533   1.415       .  A
C2532     Br2537   1.934       .  S
C2533      C2534   1.417       .  A
C2534     Br2535   1.937       .  S
C2539      C2540   1.409       .  A
C2539      C2544   1.404       .  A
C2539     Br2546   1.928       .  S
C2540      C2541   1.406       .  A
C2541      C2542   1.400       .  A
C2541     Br2548   1.935       .  S
C2542      C2543   1.412       .  A
C2542     Br2547   1.924       .  S
C2543      C2544   1.405       .  A
C2544     Br2545   1.923       .  S
C2549      C2550   1.420       .  A
C2549      C2554   1.405       .  A
C2549     Br2556   1.934       .  S
C2550      C2551   1.418       .  A
C2551      C2552   1.406       .  A
C2551     Br2558   1.917       .  S
C2552      C2553   1.402       .  A
C2552     Br2557   1.933       .  S
C2553      C2554   1.404       .  A
C2554     Br2555   1.928       .  S
C2559      C2560   1.416       .  A
C2559      C2564   1.409       .  A
C2559     Br2566   1.932       .  S
C2560      C2561   1.415       .  A
C2561      C2562   1.405       .  A
C2561     Br2568   1.931       .  S
C2562      C2563   1.406       .  A
C2562     Br2567   1.928       .  S
C2563      C2564   1.409       .  A
C2564     Br2565   1.930       .  S
C2569      C2570   1.407       .  A
C2569      C2574   1.404       .  A
C2569     Br2576   1.927       .  S
C2570      C2571   1.409       .  A
C2571      C2572   1.405       .  A
C2571     Br2578   1.931       .  S
C2572      C2573   1.412       .  A
C2572     Br2577   1.930       .  S
C2573      C2574   1.412       .  A
C2574     Br2575   1.934       .  S
C2579      C2580   1.427       .  A
C2580      C2581   1.423       .  A
C2581      C2582   1.419       .  A
C2581     Br2588   1.929       .  S
C2582     Br2587   1.929       .  S
C2583      C2584   1.412   1_554  A
C2584     Br2585   1.936       .  S
C2589      C2590   1.411       .  A
C2589      C2594   1.409       .  A
C2590      C2591   1.406       .  A
C2591      C2592   1.403       .  A
C2591     Br2598   1.926       .  S
C2592      C2593   1.411       .  A
C2592     Br2597   1.922       .  S
C2593      C2594   1.408       .  A
C2594     Br2595   1.923       .  S
C2599      C2600   1.412       .  A
C2599      C2604   1.412       .  A
C2599     Br2606   1.929       .  S
C2600      C2601   1.410       .  A
C2601      C2602   1.407       .  A
C2601     Br2608   1.934       .  S
C2602      C2603   1.412       .  A
C2602     Br2607   1.930       .  S
C2603      C2604   1.408       .  A
C2604     Br2605   1.923       .  S
C2609      C2610   1.409       .  A
C2609      C2614   1.406       .  A
C2609     Br2616   1.930   1_556  S
C2610      C2611   1.409       .  A
C2611      C2612   1.412       .  A
C2611     Br2618   1.924       .  S
C2612      C2613   1.411       .  A
C2612     Br2617   1.928       .  S
C2613      C2614   1.410       .  A
C2614     Br2615   1.932       .  S
C2619      C2620   1.409       .  A
C2619      C2624   1.412       .  A
C2619     Br2626   1.928       .  S
C2620      C2621   1.407       .  A
C2621      C2622   1.418       .  A
C2621     Br2628   1.926       .  S
C2622      C2623   1.422       .  A
C2622     Br2627   1.930       .  S
C2623      C2624   1.423       .  A
C2624     Br2625   1.938       .  S
C2629      C2630   1.415       .  A
C2629      C2634   1.392       .  A
C2629     Br2636   1.946       .  S
C2630      C2631   1.414       .  A
C2631      C2632   1.413       .  A
C2631     Br2638   1.928       .  S
C2632      C2633   1.409       .  A
C2632     Br2637   1.927       .  S
C2633      C2634   1.417       .  A
C2634     Br2635   1.946       .  S
C2639      C2640   1.411       .  A
C2639      C2644   1.404   1_545  A
C2639     Br2646   1.933       .  S
C2640      C2641   1.412       .  A
C2641      C2642   1.411       .  A
C2641     Br2648   1.924       .  S
C2642      C2643   1.409   1_545  A
C2642     Br2647   1.930   1_545  S
C2643      C2644   1.408       .  A
C2644     Br2645   1.925       .  S
C2649      C2650   1.421       .  A
C2649      C2654   1.403       .  A
C2649     Br2656   1.937       .  S
C2650      C2651   1.419       .  A
C2651      C2652   1.408       .  A
C2651     Br2658   1.936       .  S
C2652      C2653   1.410       .  A
C2652     Br2657   1.935       .  S
C2653      C2654   1.404       .  A
C2654     Br2655   1.932       .  S
C2659      C2660   1.410       .  A
C2659      C2664   1.403       .  A
C2659     Br2666   1.926       .  S
C2660      C2661   1.413       .  A
C2661      C2662   1.407       .  A
C2661     Br2668   1.925       .  S
C2662      C2663   1.406       .  A
C2662     Br2667   1.932       .  S
C2663      C2664   1.405       .  A
C2664     Br2665   1.929       .  S
C2669      C2670   1.408       .  A
C2669      C2674   1.408       .  A
C2669     Br2676   1.932       .  S
C2670      C2671   1.412       .  A
C2671      C2672   1.399       .  A
C2672      C2673   1.411       .  A
C2672     Br2677   1.939       .  S
C2673      C2674   1.415       .  A
C2674     Br2675   1.929       .  S
C2679      C2680   1.422       .  A
C2679      C2684   1.410       .  A
C2679     Br2686   1.931       .  S
C2680      C2681   1.421       .  A
C2681      C2682   1.399       .  A
C2681     Br2688   1.942       .  S
C2682      C2683   1.402       .  A
C2682     Br2687   1.927       .  S
C2683      C2684   1.405       .  A
C2684     Br2685   1.932       .  S
C2689      C2690   1.412       .  A
C2689      C2694   1.413       .  A
C2689     Br2696   1.933       .  S
C2690      C2691   1.413       .  A
C2691      C2692   1.408       .  A
C2691     Br2698   1.932       .  S
C2692      C2693   1.413       .  A
C2692     Br2697   1.932       .  S
C2693      C2694   1.418       .  A
C2694     Br2695   1.932       .  S
C2699      C2700   1.419       .  A
C2699     Br2706   1.938       .  S
C2701      C2702   1.416       .  A
C2701     Br2708   1.931   1_556  S
C2702      C2703   1.407       .  A
C2702     Br2707   1.926       .  S
C2703      C2704   1.407       .  A
C2704     Br2705   1.924       .  S
C2709      C2710   1.404       .  A
C2709      C2714   1.405       .  A
C2709     Br2716   1.929       .  S
C2710      C2711   1.404       .  A
C2711      C2712   1.409       .  A
C2711     Br2718   1.931       .  S
C2712      C2713   1.420       .  A
C2712     Br2717   1.928       .  S
C2713      C2714   1.417       .  A
C2714     Br2715   1.933       .  S
C2719      C2720   1.423   1_545  A
C2719      C2724   1.399       .  A
C2719     Br2726   1.940   1_545  S
C2720      C2721   1.420   1_565  A
C2721      C2722   1.413       .  A
C2721     Br2728   1.930   1_545  S
C2722      C2723   1.407       .  A
C2722     Br2727   1.931       .  S
C2723      C2724   1.409       .  A
C2724     Br2725   1.945       .  S
C2729      C2730   1.418       .  A
C2729      C2734   1.410       .  A
C2729     Br2736   1.935       .  S
C2730      C2731   1.418       .  A
C2731      C2732   1.409       .  A
C2731     Br2738   1.936       .  S
C2732      C2733   1.414       .  A
C2732     Br2737   1.937       .  S
C2733      C2734   1.411       .  A
C2734     Br2735   1.934       .  S
C2739      C2740   1.406       .  A
C2739      C2744   1.399       .  A
C2739     Br2746   1.927       .  S
C2740      C2741   1.413       .  A
C2741      C2742   1.414       .  A
C2741     Br2748   1.928       .  S
C2742      C2743   1.407       .  A
C2742     Br2747   1.919       .  S
C2743      C2744   1.407       .  A
C2744     Br2745   1.911       .  S
C2749      C2750   1.409       .  A
C2749      C2754   1.412       .  A
C2749     Br2756   1.930       .  S
C2750      C2751   1.407       .  A
C2751      C2752   1.400       .  A
C2751     Br2758   1.942       .  S
C2752      C2753   1.418       .  A
C2752     Br2757   1.929   1_655  S
C2753      C2754   1.415       .  A
C2754     Br2755   1.930       .  S
C2759      C2760   1.413       .  A
C2759      C2764   1.405       .  A
C2759     Br2766   1.937       .  S
C2760      C2761   1.411       .  A
C2761      C2762   1.404       .  A
C2761     Br2768   1.933       .  S
C2762      C2763   1.413       .  A
C2762     Br2767   1.934       .  S
C2763      C2764   1.417       .  A
C2764     Br2765   1.937       .  S
C2769      C2770   1.413       .  A
C2769      C2774   1.406       .  A
C2769     Br2776   1.924       .  S
C2770      C2771   1.418       .  A
C2771      C2772   1.417       .  A
C2771     Br2778   1.930       .  S
C2772      C2773   1.410       .  A
C2772     Br2777   1.926       .  S
C2773      C2774   1.406       .  A
C2774     Br2775   1.927       .  S
C2779      C2780   1.419       .  A
C2779      C2784   1.408       .  A
C2779     Br2786   1.923       .  S
C2780      C2781   1.416       .  A
C2781      C2782   1.406   1_455  A
C2781     Br2788   1.935   1_455  S
C2782      C2783   1.406   1_655  A
C2782     Br2787   1.928       .  S
C2783      C2784   1.402       .  A
C2784     Br2785   1.931       .  S
C2789      C2790   1.403       .  A
C2789      C2794   1.405       .  A
C2789     Br2796   1.932       .  S
C2790      C2791   1.407   1_655  A
C2791     Br2798   1.920       .  S
C2792      C2793   1.414   1_455  A
C2792     Br2797   1.934       .  S
C2794     Br2795   1.919   1_556  S
C2799      C2800   1.421       .  A
C2799      C2804   1.407       .  A
C2799     Br2806   1.932       .  S
C2800      C2801   1.419       .  A
C2801      C2802   1.410       .  A
C2802      C2803   1.405       .  A
C2802     Br2807   1.930   1_455  S
C2803      C2804   1.405       .  A
C2804     Br2805   1.935       .  S
C2809      C2810   1.425       .  A
C2809      C2814   1.403       .  A
C2809     Br2816   1.941   1_655  S
C2810      C2811   1.426       .  A
C2811      C2812   1.417       .  A
C2811     Br2818   1.933       .  S
C2812      C2813   1.406       .  A
C2812     Br2817   1.929       .  S
C2813      C2814   1.403       .  A
C2814     Br2815   1.937       .  S
C2819      C2820   1.409       .  A
C2819      C2824   1.407       .  A
C2819     Br2826   1.928       .  S
C2820      C2821   1.409       .  A
C2821      C2822   1.402       .  A
C2821     Br2828   1.931       .  S
C2822      C2823   1.409       .  A
C2822     Br2827   1.931       .  S
C2823      C2824   1.410       .  A
C2824     Br2825   1.929       .  S
C2829      C2830   1.414       .  A
C2829      C2834   1.400       .  A
C2829     Br2836   1.931       .  S
C2830      C2831   1.417       .  A
C2831      C2832   1.411       .  A
C2832      C2833   1.408       .  A
C2833      C2834   1.405       .  A
C2834     Br2835   1.921       .  S
C2839      C2840   1.403       .  A
C2839      C2844   1.398       .  A
C2839     Br2846   1.928       .  S
C2840      C2841   1.411       .  A
C2841      C2842   1.415       .  A
C2841     Br2848   1.926       .  S
C2842      C2843   1.409       .  A
C2842     Br2847   1.920       .  S
C2843      C2844   1.408       .  A
C2844     Br2845   1.918       .  S
C2849      C2850   1.402       .  A
C2849      C2854   1.394       .  A
C2849     Br2856   1.937       .  S
C2850      C2851   1.414       .  A
C2851      C2852   1.415       .  A
C2851     Br2858   1.928       .  S
C2852      C2853   1.410       .  A
C2852     Br2857   1.922       .  S
C2853      C2854   1.411       .  A
C2854     Br2855   1.913       .  S
C2859      C2860   1.407       .  A
C2859      C2864   1.404       .  A
C2859     Br2866   1.934       .  S
C2860      C2861   1.410       .  A
C2861      C2862   1.415       .  A
C2861     Br2868   1.926       .  S
C2862      C2863   1.414       .  A
C2862     Br2867   1.927       .  S
C2863      C2864   1.409       .  A
C2864     Br2865   1.917       .  S
C2869      C2870   1.417       .  A
C2869      C2874   1.408       .  A
C2869     Br2876   1.934       .  S
C2870      C2871   1.414       .  A
C2871      C2872   1.406       .  A
C2871     Br2878   1.938       .  S
C2872      C2873   1.418       .  A
C2872     Br2877   1.938       .  S
C2873      C2874   1.412       .  A
C2874     Br2875   1.936       .  S
C2879      C2880   1.410       .  A
C2879      C2884   1.409       .  A
C2879     Br2886   1.925       .  S
C2880      C2881   1.403       .  A
C2881      C2882   1.397       .  A
C2881     Br2888   1.930       .  S
C2882      C2883   1.408       .  A
C2882     Br2887   1.922       .  S
C2883      C2884   1.406       .  A
C2884     Br2885   1.923       .  S
C2889      C2890   1.411       .  A
C2889      C2894   1.412       .  A
C2889     Br2896   1.935       .  S
C2890      C2891   1.416       .  A
C2891      C2892   1.411       .  A
C2891     Br2898   1.932       .  S
C2892      C2893   1.418       .  A
C2892     Br2897   1.936       .  S
C2893      C2894   1.420       .  A
C2894     Br2895   1.936       .  S
C2899      C2900   1.413       .  A
C2899      C2904   1.408       .  A
C2899     Br2906   1.926       .  S
C2900      C2901   1.413       .  A
C2901      C2902   1.407       .  A
C2901     Br2908   1.929       .  S
C2902      C2903   1.406       .  A
C2902     Br2907   1.927       .  S
C2903      C2904   1.404       .  A
C2904     Br2905   1.927       .  S
C2909      C2910   1.417       .  A
C2909      C2914   1.412       .  A
C2909     Br2916   1.935       .  S
C2910      C2911   1.421       .  A
C2911      C2912   1.408       .  A
C2911     Br2918   1.939       .  S
C2912      C2913   1.413       .  A
C2912     Br2917   1.939       .  S
C2913      C2914   1.413       .  A
C2914     Br2915   1.933       .  S
C2919      C2920   1.414       .  A
C2919      C2924   1.407       .  A
C2919     Br2926   1.920       .  S
C2920      C2921   1.414       .  A
C2921      C2922   1.410       .  A
C2921     Br2928   1.925       .  S
C2922      C2923   1.408       .  A
C2922     Br2927   1.931   1_556  S
C2923      C2924   1.404       .  A
C2924     Br2925   1.922       .  S
C2929      C2930   1.408       .  A
C2929      C2934   1.405       .  A
C2929     Br2936   1.931       .  S
C2930      C2931   1.408       .  A
C2931      C2932   1.414       .  A
C2931     Br2938   1.925       .  S
C2932      C2933   1.414       .  A
C2932     Br2937   1.927       .  S
C2933      C2934   1.412       .  A
C2934     Br2935   1.931       .  S
C2939      C2940   1.418       .  A
C2939      C2944   1.402       .  A
C2939     Br2946   1.935       .  S
C2940      C2941   1.420       .  A
C2941      C2942   1.406       .  A
C2941     Br2948   1.935       .  S
C2942      C2943   1.405       .  A
C2942     Br2947   1.931       .  S
C2943      C2944   1.403       .  A
C2944     Br2945   1.929       .  S
C2949      C2950   1.416       .  A
C2949      C2954   1.411       .  A
C2949     Br2956   1.929       .  S
C2950      C2951   1.414       .  A
C2951      C2952   1.409       .  A
C2951     Br2958   1.932       .  S
C2952      C2953   1.406       .  A
C2952     Br2957   1.919       .  S
C2953      C2954   1.409       .  A
C2954     Br2955   1.930       .  S
C2959      C2960   1.407       .  A
C2959      C2964   1.410       .  A
C2959     Br2966   1.932       .  S
C2960      C2961   1.408       .  A
C2961      C2962   1.406       .  A
C2962      C2963   1.420       .  A
C2962     Br2967   1.935       .  S
C2963      C2964   1.423       .  A
C2964     Br2965   1.936       .  S
C2969      C2970   1.404       .  A
C2969      C2974   1.410       .  A
C2969     Br2976   1.929       .  S
C2970      C2971   1.405       .  A
C2971      C2972   1.402       .  A
C2971     Br2978   1.935       .  S
C2972      C2973   1.417       .  A
C2972     Br2977   1.936       .  S
C2973      C2974   1.420       .  A
C2974     Br2975   1.931       .  S
C2979      C2980   1.406       .  A
C2979      C2984   1.401       .  A
C2979     Br2986   1.935       .  S
C2980      C2981   1.409       .  A
C2981      C2982   1.409       .  A
C2981     Br2988   1.930       .  S
C2982      C2983   1.413       .  A
C2982     Br2987   1.930       .  S
C2983      C2984   1.414       .  A
C2984     Br2985   1.928       .  S
C2989      C2990   1.425       .  A
C2989      C2994   1.419       .  A
C2989     Br2996   1.929       .  S
C2991      C2992   1.407       .  A
C2991     Br2998   1.941       .  S
C2992      C2993   1.407       .  A
C2992     Br2997   1.942       .  S
C2994     Br2995   1.931       .  S
C2999      C3000   1.425       .  A
C2999      C3004   1.415       .  A
C2999     Br3006   1.937       .  S
C3000      C3001   1.423       .  A
C3001      C3002   1.413       .  A
C3001     Br3008   1.939       .  S
C3002      C3003   1.414       .  A
C3002     Br3007   1.933       .  S
C3003      C3004   1.410       .  A
C3004     Br3005   1.931       .  S
C3009      C3010   1.430       .  A
C3009      C3014   1.407       .  A
C3009     Br3016   1.940       .  S
C3010      C3011   1.424       .  A
C3011      C3012   1.407       .  A
C3011     Br3018   1.937       .  S
C3012      C3013   1.405       .  A
C3012     Br3017   1.937       .  S
C3013      C3014   1.403       .  A
C3014     Br3015   1.936       .  S
C3019      C3020   1.415       .  A
C3019      C3024   1.406       .  A
C3019     Br3026   1.922       .  S
C3020      C3021   1.407       .  A
C3021      C3022   1.405       .  A
C3021     Br3028   1.922       .  S
C3022      C3023   1.408       .  A
C3022     Br3027   1.928       .  S
C3023      C3024   1.403       .  A
C3024     Br3025   1.932       .  S
C3029      C3030   1.407       .  A
C3029      C3034   1.405       .  A
C3029     Br3036   1.934       .  S
C3030      C3031   1.405       .  A
C3031      C3032   1.405       .  A
C3031     Br3038   1.934       .  S
C3032      C3033   1.418       .  A
C3032     Br3037   1.935       .  S
C3033      C3034   1.418       .  A
C3034     Br3035   1.934       .  S
C3039      C3040   1.411       .  A
C3039      C3044   1.410       .  A
C3039     Br3046   1.927       .  S
C3040      C3041   1.404       .  A
C3041      C3042   1.409       .  A
C3041     Br3048   1.926       .  S
C3042      C3043   1.415       .  A
C3042     Br3047   1.927       .  S
C3043      C3044   1.409       .  A
C3044     Br3045   1.929       .  S
C3049      C3050   1.411       .  A
C3049      C3054   1.415       .  A
C3049     Br3056   1.930       .  S
C3050      C3051   1.406       .  A
C3051      C3052   1.396       .  A
C3051     Br3058   1.940       .  S
C3052      C3053   1.422       .  A
C3052     Br3057   1.939       .  S
C3053      C3054   1.418       .  A
C3054     Br3055   1.930       .  S
C3059      C3060   1.425       .  A
C3059      C3064   1.410       .  A
C3059     Br3066   1.938       .  S
C3060      C3061   1.423       .  A
C3061      C3062   1.409       .  A
C3061     Br3068   1.936       .  S
C3062      C3063   1.406       .  A
C3062     Br3067   1.933       .  S
C3063      C3064   1.409       .  A
C3064     Br3065   1.937       .  S
C3069      C3070   1.407       .  A
C3069      C3074   1.406       .  A
C3069     Br3076   1.929       .  S
C3070      C3071   1.412       .  A
C3071      C3072   1.405       .  A
C3071     Br3078   1.920       .  S
C3072      C3073   1.403       .  A
C3072     Br3077   1.929       .  S
C3073      C3074   1.410       .  A
C3074     Br3075   1.927       .  S
C3079      C3080   1.409       .  A
C3079      C3084   1.410       .  A
C3079     Br3086   1.926       .  S
C3080      C3081   1.407       .  A
C3081      C3082   1.410       .  A
C3081     Br3088   1.933       .  S
C3082      C3083   1.419       .  A
C3083      C3084   1.415       .  A
C3084     Br3085   1.931       .  S
C3089      C3090   1.413       .  A
C3089      C3094   1.406       .  A
C3090      C3091   1.416       .  A
C3091      C3092   1.402       .  A
C3091     Br3098   1.931       .  S
C3092      C3093   1.407       .  A
C3092     Br3097   1.934       .  S
C3093      C3094   1.409       .  A
C3094     Br3095   1.927       .  S
C3099      C3100   1.417       .  A
C3099      C3104   1.402       .  A
C3099     Br3106   1.935       .  S
C3100      C3101   1.416       .  A
C3101      C3102   1.410       .  A
C3101     Br3108   1.929       .  S
C3102      C3103   1.407       .  A
C3102     Br3107   1.931       .  S
C3103      C3104   1.405       .  A
C3104     Br3105   1.927       .  S
C3109      C3110   1.422       .  A
C3109      C3114   1.416       .  A
C3109     Br3116   1.937       .  S
C3110      C3111   1.417       .  A
C3111      C3112   1.406       .  A
C3111     Br3118   1.941       .  S
C3112      C3113   1.418       .  A
C3112     Br3117   1.934       .  S
C3113      C3114   1.420       .  A
C3114     Br3115   1.939       .  S
C3119      C3120   1.405       .  A
C3119      C3124   1.408       .  A
C3119     Br3126   1.931       .  S
C3120      C3121   1.405       .  A
C3121      C3122   1.408       .  A
C3121     Br3128   1.930       .  S
C3122      C3123   1.418       .  A
C3122     Br3127   1.929       .  S
C3123      C3124   1.416       .  A
C3124     Br3125   1.931       .  S
C3129      C3130   1.425       .  A
C3129      C3134   1.414       .  A
C3129     Br3136   1.932       .  S
C3130      C3131   1.428       .  A
C3131     Br3138   1.933       .  S
C3132      C3133   1.402       .  A
C3132     Br3137   1.936       .  S
C3134     Br3135   1.929   1_556  S
C3139      C3140   1.408       .  A
C3139      C3144   1.409       .  A
C3139     Br3146   1.928       .  S
C3140      C3141   1.406       .  A
C3141      C3142   1.404       .  A
C3141     Br3148   1.930       .  S
C3142      C3143   1.408       .  A
C3142     Br3147   1.927       .  S
C3143      C3144   1.408       .  A
C3144     Br3145   1.926       .  S
C3149      C3150   1.411       .  A
C3149      C3154   1.403       .  A
C3149     Br3156   1.932       .  S
C3150      C3151   1.415       .  A
C3151      C3152   1.403       .  A
C3151     Br3158   1.934       .  S
C3152      C3153   1.406       .  A
C3152     Br3157   1.934       .  S
C3153      C3154   1.407       .  A
C3154     Br3155   1.932       .  S
C3159      C3160   1.419       .  A
C3159      C3164   1.393       .  A
C3159     Br3166   1.945       .  S
C3160      C3161   1.413       .  A
C3161      C3162   1.415       .  A
C3161     Br3168   1.927       .  S
C3162      C3163   1.411       .  A
C3162     Br3167   1.927       .  S
C3163      C3164   1.413       .  A
C3164     Br3165   1.945       .  S
C3169      C3170   1.414       .  A
C3169      C3174   1.411       .  A
C3169     Br3176   1.934       .  S
C3170      C3171   1.412       .  A
C3171      C3172   1.411       .  A
C3171     Br3178   1.933       .  S
C3172      C3173   1.417       .  A
C3172     Br3177   1.934       .  S
C3173      C3174   1.415       .  A
C3174     Br3175   1.934       .  S
C3179      C3180   1.411       .  A
C3179      C3184   1.414       .  A
C3179     Br3186   1.925       .  S
C3181      C3182   1.404       .  A
C3181     Br3188   1.930       .  S
C3182      C3183   1.408       .  A
C3182     Br3187   1.932       .  S
C3184     Br3185   1.929       .  S
C3189      C3190   1.408       .  A
C3189      C3194   1.409       .  A
C3189     Br3196   1.936       .  S
C3190      C3191   1.408       .  A
C3191      C3192   1.411       .  A
C3191     Br3198   1.925   1_556  S
C3192      C3193   1.422       .  A
C3192     Br3197   1.936       .  S
C3193      C3194   1.427       .  A
C3194     Br3195   1.938       .  S
C3199      C3200   1.401       .  A
C3199      C3204   1.407       .  A
C3199     Br3206   1.921       .  S
C3200      C3201   1.408       .  A
C3201      C3202   1.409       .  A
C3201     Br3208   1.927       .  S
C3202      C3203   1.410       .  A
C3202     Br3207   1.928       .  S
C3203      C3204   1.412       .  A
C3204     Br3205   1.927       .  S
C3209      C3210   1.417       .  A
C3209      C3214   1.410       .  A
C3209     Br3216   1.929       .  S
C3210      C3211   1.423       .  A
C3211      C3212   1.407       .  A
C3211     Br3218   1.939   1_556  S
C3212      C3213   1.406       .  A
C3212     Br3217   1.935       .  S
C3213      C3214   1.408       .  A
C3214     Br3215   1.932       .  S
C3219      C3220   1.410       .  A
C3219      C3224   1.411       .  A
C3219     Br3226   1.930       .  S
C3220      C3221   1.406       .  A
C3221      C3222   1.410       .  A
C3221     Br3228   1.931       .  S
C3222      C3223   1.419       .  A
C3222     Br3227   1.927       .  S
C3223      C3224   1.416       .  A
C3224     Br3225   1.933       .  S
C3229      C3230   1.405       .  A
C3229      C3234   1.416       .  A
C3229     Br3236   1.931       .  S
C3230      C3231   1.402       .  A
C3231      C3232   1.404       .  A
C3231     Br3238   1.938       .  S
C3232      C3233   1.428       .  A
C3232     Br3237   1.938       .  S
C3233      C3234   1.427       .  A
C3234     Br3235   1.933       .  S
C3239      C3240   1.410       .  A
C3239      C3244   1.405       .  A
C3239     Br3246   1.925       .  S
C3240      C3241   1.417       .  A
C3241      C3242   1.411       .  A
C3241     Br3248   1.931       .  S
C3242      C3243   1.404       .  A
C3242     Br3247   1.920       .  S
C3243      C3244   1.407       .  A
C3244     Br3245   1.925       .  S
C3249      C3250   1.403       .  A
C3249      C3254   1.405       .  A
C3249     Br3256   1.933       .  S
C3250      C3251   1.404       .  A
C3251      C3252   1.406       .  A
C3251     Br3258   1.929       .  S
C3252      C3253   1.416       .  A
C3252     Br3257   1.928       .  S
C3253      C3254   1.421       .  A
C3254     Br3255   1.937       .  S
C3259      C3260   1.414       .  A
C3259      C3264   1.405       .  A
C3259     Br3266   1.936       .  S
C3260      C3261   1.415       .  A
C3261      C3262   1.413       .  A
C3261     Br3268   1.929       .  S
C3262      C3263   1.409       .  A
C3262     Br3267   1.924       .  S
C3263      C3264   1.410       .  A
C3264     Br3265   1.920       .  S
C3269      C3270   1.416       .  A
C3269      C3274   1.406       .  A
C3269     Br3276   1.930       .  S
C3270      C3271   1.410       .  A
C3271      C3272   1.395       .  A
C3271     Br3278   1.929       .  S
C3272      C3273   1.413       .  A
C3272     Br3277   1.936       .  S
C3273      C3274   1.410       .  A
C3274     Br3275   1.933       .  S
C3279      C3280   1.406       .  A
C3279      C3284   1.400       .  A
C3279     Br3286   1.919       .  S
C3280      C3281   1.401       .  A
C3281      C3282   1.405       .  A
C3281     Br3288   1.928       .  S
C3282      C3283   1.417       .  A
C3282     Br3287   1.926       .  S
C3283      C3284   1.408       .  A
C3284     Br3285   1.934       .  S
C3289      C3290   1.407       .  A
C3289      C3294   1.414       .  A
C3289     Br3296   1.928       .  S
C3290      C3291   1.405       .  A
C3291      C3292   1.397       .  A
C3291     Br3298   1.940       .  S
C3292      C3293   1.421       .  A
C3292     Br3297   1.935       .  S
C3293      C3294   1.418       .  A
C3294     Br3295   1.929       .  S
C3299      C3300   1.407       .  A
C3299      C3304   1.406       .  A
C3299     Br3306   1.931       .  S
C3300      C3301   1.408       .  A
C3301      C3302   1.404       .  A
C3301     Br3308   1.930       .  S
C3302      C3303   1.406       .  A
C3302     Br3307   1.928       .  S
C3303      C3304   1.409       .  A
C3304     Br3305   1.930       .  S
C3309      C3310   1.418       .  A
C3309      C3314   1.409       .  A
C3309     Br3316   1.939       .  S
C3310      C3311   1.424       .  A
C3311      C3312   1.410       .  A
C3311     Br3318   1.940       .  S
C3312      C3313   1.417       .  A
C3312     Br3317   1.941       .  S
C3313      C3314   1.412       .  A
C3314     Br3315   1.927       .  S
C3319      C3320   1.406       .  A
C3319      C3324   1.404       .  A
C3319     Br3326   1.932       .  S
C3320      C3321   1.407       .  A
C3321      C3322   1.410       .  A
C3321     Br3328   1.932       .  S
C3322      C3323   1.416       .  A
C3322     Br3327   1.930       .  S
C3323      C3324   1.414       .  A
C3324     Br3325   1.933       .  S
