geometry optimzed in LAMMPS
_audit_creation_date              2020-12-01 
_audit_creation_method            'lammps2cif' 
_symmetry_space_group_name_H-M    'P1' 
_symmetry_Int_Tables_number       1 
_symmetry_cell_setting            triclinic 
loop_ 
_symmetry_equiv_pos_as_xyz 
  x,y,z 
_cell_length_a                    28.46595978 
_cell_length_b                    28.58076892013284 
_cell_length_c                    89.10524708047012 
_cell_angle_alpha                 89.93214584640482 
_cell_angle_beta                  90.1561517764026 
_cell_angle_gamma                 90.08272503004338 
loop_ 
_atom_site_label 
_atom_site_type_symbol 
_atom_site_fract_x 
_atom_site_fract_y 
_atom_site_fract_z 
_atom_site_charge 
O1          O  0.83356007  0.09091942  0.70175987    -0.84800
O2          O  0.75716420  0.08883455  0.72045616    -0.81800
C3          C  0.77700205  0.08463846  0.73314453     0.98700
O4          O  0.80282148  0.11731041  0.73779143    -0.81900
O5          O  0.85227884  0.20074798  0.73993658    -0.84500
C6          C  0.89286824  0.19403702  0.73459184     1.03200
O7          O  0.89734855  0.18504651  0.72091592    -0.77300
O8          O  0.87777789  0.14860889  0.69367643    -0.77500
C9          C  0.87221575  0.10548165  0.69662893     1.03200
O10         O  0.78810260  0.15676834  0.68232483    -0.84800
O11         O  0.71617188  0.16418928  0.70357872    -0.81800
C12         C  0.69717558  0.17194422  0.71613424     0.98700
O13         O  0.72039049  0.16816259  0.72822262    -0.81900
O14         O  0.77182509  0.24785135  0.72769196    -0.84500
C15         C  0.79986596  0.27760327  0.72242779     1.03200
O16         O  0.83673161  0.26514797  0.71548381    -0.77300
O17         O  0.81403128  0.22631322  0.68818814    -0.77400
C18         C  0.79777220  0.19838574  0.67859999     1.03100
Cr19       Cr  0.77588063  0.12857173  0.70271181     1.93700
Cr20       Cr  0.78838187  0.18249151  0.73198992     1.93200
Cr21       Cr  0.85262795  0.20398088  0.70517799     1.39100
O22         O  0.80558910  0.17222227  0.71324048    -1.22500
O23         O  0.17385183  0.87069803  0.69783516    -0.84800
O24         O  0.22506769  0.88319406  0.72330624    -0.81800
C25         C  0.23667706  0.87607030  0.73674294     0.98700
O26         O  0.24103609  0.83489346  0.74164960    -0.81900
O27         O  0.15442404  0.79220513  0.74307472    -0.84500
C28         C  0.11698940  0.77250074  0.73902880     1.03200
O29         O  0.11404629  0.75375597  0.72623184    -0.77300
O30         O  0.11515049  0.83093285  0.70779311    -0.77500
C31         C  0.13113232  0.86772052  0.70180773     1.03200
O32         O  0.24104035  0.80002508  0.68824718    -0.84800
O33         O  0.29436388  0.81706948  0.71397213    -0.81800
C34         C  0.30710244  0.78068621  0.72102363     0.98700
O35         O  0.27690794  0.75404558  0.72682233    -0.81900
O36         O  0.19410544  0.70812705  0.73037264    -0.84500
C37         C  0.19000200  0.68604451  0.71813282     1.03200
O38         O  0.17787076  0.70704532  0.70624024    -0.77300
O39         O  0.16723343  0.78099079  0.68595059    -0.77400
C40         C  0.20726754  0.78650070  0.68016509     1.03100
Cr41       Cr  0.23103078  0.83881405  0.70653383     1.93700
Cr42       Cr  0.21511290  0.77415467  0.73397670     1.93200
Cr43       Cr  0.14775690  0.76999967  0.70721803     1.39100
O44         O  0.19828095  0.79458195  0.71590685    -1.22500
O45         O  0.33774577  0.36770099  0.80256738    -0.84800
O46         O  0.29708627  0.38619813  0.77538792    -0.81800
C47         C  0.28479816  0.38041443  0.76192513     0.98700
O48         O  0.27861033  0.33944049  0.75697239    -0.81900
O49         O  0.36266355  0.28835020  0.75766897    -0.84500
C50         C  0.39651994  0.26462812  0.76282438     1.03200
O51         O  0.39298108  0.24586158  0.77559994    -0.77300
O52         O  0.39420954  0.32288225  0.79396498    -0.77500
C53         C  0.38081518  0.36104538  0.79961569     1.03200
O54         O  0.26049519  0.30378109  0.80909663    -0.84800
O55         O  0.21785112  0.32709072  0.78233392    -0.81800
C56         C  0.20362510  0.29026667  0.77582277     0.98700
O57         O  0.23226798  0.26130455  0.77044600    -0.81900
O58         O  0.31132039  0.20859162  0.76881604    -0.84500
C59         C  0.31020991  0.18591239  0.78102691     1.03200
O60         O  0.31979897  0.20566777  0.79336014    -0.77300
O61         O  0.33055172  0.27843516  0.81420081    -0.77400
C62         C  0.28933919  0.28786112  0.81849532     1.03100
Cr63       Cr  0.28070712  0.34224232  0.79171992     1.93700
Cr64       Cr  0.29754044  0.27621187  0.76490158     1.93200
Cr65       Cr  0.35577384  0.26544021  0.79355953     1.39100
O66         O  0.31111322  0.29483079  0.78337238    -1.22500
O67         O  0.68034075  0.58326945  0.79783328    -0.84800
O68         O  0.74876900  0.58890113  0.77618031    -0.81800
C69         C  0.72396485  0.58934408  0.76436371     0.98700
O70         O  0.69900460  0.62441494  0.76124136    -0.81900
O71         O  0.65121190  0.70818192  0.76465077    -0.84500
C72         C  0.61217460  0.70025992  0.77086229     1.03200
O73         O  0.61101163  0.68470920  0.78406826    -0.77300
O74         O  0.63976996  0.63799098  0.80925687    -0.77500
C75         C  0.64445799  0.59565385  0.80510736     1.03200
O76         O  0.73377709  0.64245170  0.81726135    -0.84800
O77         O  0.79708716  0.65871989  0.79409616    -0.81800
C78         C  0.81191237  0.67152611  0.78138152     0.98700
O79         O  0.78471433  0.67076600  0.77013722    -0.81900
O80         O  0.73444200  0.74963401  0.77595519    -0.84500
C81         C  0.70689845  0.77740656  0.78247486     1.03200
O82         O  0.67320839  0.76180562  0.79032871    -0.77300
O83         O  0.70683128  0.71355583  0.81515137    -0.77400
C84         C  0.72738962  0.68255677  0.82278409     1.03100
Cr85       Cr  0.73767091  0.62195336  0.79579804     1.93700
Cr86       Cr  0.71627791  0.68661964  0.76943488     1.93200
Cr87       Cr  0.66131019  0.69729685  0.79893661     1.39100
O88         O  0.70472422  0.66875107  0.78807168    -1.22500
O89         O  0.69657991  0.11501635  0.04328768    -0.84800
O90         O  0.77038666  0.11679143  0.02394713    -0.81800
C91         C  0.75100656  0.11898769  0.01114343     0.98700
O92         O  0.73006020  0.15563899  0.00704618    -0.81900
O93         O  0.68367968  0.24081998  0.00902406    -0.84500
C94         C  0.64251911  0.23330402  0.01376721     1.03200
O95         O  0.63697621  0.21648668  0.02671476    -0.77300
O96         O  0.65486684  0.17131280  0.05320629    -0.77500
C97         C  0.65938021  0.12869451  0.04955299     1.03200
O98         O  0.74593011  0.17349762  0.06423167    -0.84800
O99         O  0.81770540  0.18375607  0.04314672    -0.81800
C100        C  0.83787548  0.19410743  0.03097099     0.98700
O101        O  0.81426786  0.19768558  0.01894327    -0.81900
O102        O  0.76477401  0.27911644  0.02343566    -0.84500
C103        C  0.73568128  0.30739501  0.02893145     1.03200
O104        O  0.69815206  0.29234781  0.03489399    -0.77300
O105        O  0.72144565  0.24481960  0.06068713    -0.77400
C106        C  0.73802182  0.21401670  0.06930681     1.03100
Cr107      Cr  0.75574110  0.15106540  0.04303046     1.93700
Cr108      Cr  0.74662948  0.21676986  0.01602232     1.93200
Cr109      Cr  0.68164502  0.22886446  0.04320822     1.39100
O110        O  0.72788822  0.19897299  0.03409375    -1.22500
O111        O  0.34928834  0.90869204  0.04732489    -0.84800
O112        O  0.27419380  0.90173905  0.02839228    -0.81800
C113        C  0.29409650  0.90479776  0.01570044     0.98700
O114        O  0.31994015  0.87183128  0.01134021    -0.81900
O115        O  0.37271099  0.78982859  0.01130378    -0.84500
C116        C  0.41319073  0.80082058  0.01589497     1.03200
O117        O  0.41796874  0.81580564  0.02906546    -0.77300
O118        O  0.39832655  0.85587539  0.05586306    -0.77500
C119        C  0.38951135  0.89789560  0.05213373     1.03200
O120        O  0.30765684  0.84271429  0.06779640    -0.84800
O121        O  0.23601000  0.82748400  0.04661761    -0.81800
C122        C  0.21679784  0.81827827  0.03414263     0.98700
O123        O  0.24036649  0.82020657  0.02214980    -0.81900
O124        O  0.29579198  0.74394516  0.02530505    -0.84500
C125        C  0.32642172  0.71677093  0.03057919     1.03200
O126        O  0.36339730  0.73308250  0.03663805    -0.77300
O127        O  0.33976707  0.77515115  0.06307833    -0.77400
C128        C  0.31994644  0.80231153  0.07211861     1.03100
Cr129      Cr  0.29409812  0.86680339  0.04694451     1.93700
Cr130      Cr  0.30878985  0.80789065  0.01890167     1.93200
Cr131      Cr  0.37598438  0.79697535  0.04557607     1.39100
O132        O  0.32639361  0.82364515  0.03721705    -1.22500
O133        O  0.85747890  0.63032671  0.94815640    -0.84800
O134        O  0.80540451  0.61633014  0.97321243    -0.81800
C135        C  0.79046744  0.62252983  0.98627210     0.98700
O136        O  0.78782903  0.66327797  0.99167291    -0.81900
O137        O  0.87702983  0.70385254  0.99373544    -0.84500
C138        C  0.91462591  0.72390765  0.98984874     1.03200
O139        O  0.91704410  0.74464487  0.97731328    -0.77300
O140        O  0.91617048  0.67108164  0.95773414    -0.77500
C141        C  0.90057170  0.63409470  0.95184657     1.03200
O142        O  0.78945618  0.70237496  0.93909117    -0.84800
O143        O  0.73678464  0.68416606  0.96437794    -0.81800
C144        C  0.72478089  0.72130435  0.97116390     0.98700
O145        O  0.75491474  0.74667326  0.97757960    -0.81900
O146        O  0.83923598  0.78971898  0.98212916    -0.84500
C147        C  0.84282868  0.81364344  0.97024194     1.03200
O148        O  0.85217607  0.79396170  0.95791838    -0.77300
O149        O  0.86262871  0.72278668  0.93656546    -0.77400
C150        C  0.82252812  0.71633440  0.93088883     1.03100
Cr151      Cr  0.79995855  0.66203776  0.95689839     1.93700
Cr152      Cr  0.81624823  0.72408555  0.98480857     1.93200
Cr153      Cr  0.88280993  0.73130536  0.95802081     1.39100
O154        O  0.83287075  0.70533329  0.96658293    -1.22500
O155        O  0.19054993  0.39060139  0.94541991    -0.84800
O156        O  0.23450165  0.41181706  0.97177230    -0.81800
C157        C  0.25007172  0.40731779  0.98492998     0.98700
O158        O  0.25950178  0.36720445  0.99001771    -0.81900
O159        O  0.17523041  0.31799921  0.99237024    -0.84500
C160        C  0.13927407  0.29520103  0.98840351     1.03200
O161        O  0.13779985  0.27535446  0.97570960    -0.77300
O162        O  0.13466777  0.34802806  0.95561584    -0.77500
C163        C  0.14811719  0.38511174  0.94928153     1.03200
O164        O  0.26584051  0.32615861  0.93849621    -0.84800
O165        O  0.31282301  0.35297539  0.96432830    -0.81800
C166        C  0.32851036  0.31636606  0.97060035     0.98700
O167        O  0.30103053  0.28693687  0.97640057    -0.81900
O168        O  0.22113917  0.23647397  0.98123042    -0.84500
C169        C  0.21973452  0.21207855  0.96943919     1.03200
O170        O  0.20676497  0.22975419  0.95712788    -0.77300
O171        O  0.19487844  0.29825028  0.93537898    -0.77400
C172        C  0.23554636  0.30639951  0.93032805     1.03100
Cr173      Cr  0.24862999  0.36649546  0.95571661     1.93700
Cr174      Cr  0.23765235  0.30368545  0.98355722     1.93200
Cr175      Cr  0.17219178  0.29010084  0.95656675     1.39100
O176        O  0.21953818  0.32022353  0.96526051    -1.22500
O177        O  0.83503797  0.38799762  0.54203459    -0.84800
O178        O  0.75835954  0.38005004  0.52366736    -0.81800
C179        C  0.77606542  0.38178053  0.51068299     0.98700
O180        O  0.80262105  0.34915532  0.50629005    -0.81900
O181        O  0.85440520  0.26568208  0.50672541    -0.84500
C182        C  0.89564961  0.27475104  0.51098557     1.03200
O183        O  0.90225469  0.28956853  0.52414065    -0.77300
O184        O  0.88456659  0.33493297  0.55050376    -0.77500
C185        C  0.87521481  0.37692250  0.54691605     1.03200
O186        O  0.79382656  0.32556212  0.56318258    -0.84800
O187        O  0.72113506  0.30691464  0.54272999    -0.81800
C188        C  0.70184401  0.29519592  0.53048116     0.98700
O189        O  0.72456888  0.29972870  0.51841284    -0.81900
O190        O  0.77774241  0.22211647  0.52176193    -0.84500
C191        C  0.80703851  0.19537488  0.52793243     1.03200
O192        O  0.84504669  0.21092580  0.53348121    -0.77300
O193        O  0.82512441  0.25724205  0.55966295    -0.77400
C194        C  0.80656117  0.28657093  0.56835727     1.03100
Cr195      Cr  0.77935348  0.34664158  0.54226840     1.93700
Cr196      Cr  0.79177845  0.28558286  0.51468130     1.93200
Cr197      Cr  0.86028288  0.27530019  0.54129739     1.39100
O198        O  0.81097277  0.30244875  0.53277796    -1.22500
O199        O  0.66802058  0.89089628  0.45519025    -0.84800
O200        O  0.73905203  0.89186679  0.47558529    -0.81800
C201        C  0.71730949  0.89007564  0.48795364     0.98700
O202        O  0.69656081  0.85318191  0.49200129    -0.81900
O203        O  0.65724733  0.76410823  0.49021784    -0.84500
C204        C  0.61602496  0.77006522  0.48544540     1.03200
O205        O  0.60978062  0.78432584  0.47222280    -0.77300
O206        O  0.62559700  0.83269545  0.44622341    -0.77500
C207        C  0.63073662  0.87605999  0.44921750     1.03200
O208        O  0.72075981  0.83412840  0.43541734    -0.84800
O209        O  0.78971046  0.82479676  0.45727709    -0.81800
C210        C  0.80836334  0.81615087  0.46982982     0.98700
O211        O  0.78356322  0.81637858  0.48154613    -0.81900
O212        O  0.74142723  0.73295034  0.47643172    -0.84500
C213        C  0.71537443  0.70157762  0.47120244     1.03200
O214        O  0.67743355  0.71275768  0.46445783    -0.77300
O215        O  0.69705675  0.76196478  0.43846555    -0.77400
C216        C  0.71500877  0.79335042  0.43039439     1.03100
Cr217      Cr  0.72747437  0.85660627  0.45650131     1.93700
Cr218      Cr  0.71793210  0.79290789  0.48363545     1.93200
Cr219      Cr  0.65593357  0.77547056  0.45595011     1.39100
O220        O  0.69977917  0.80846711  0.46532508    -1.22500
O221        O  0.35319706  0.12518327  0.44648374    -0.84800
O222        O  0.30695201  0.10310740  0.47236915    -0.81800
C223        C  0.28808936  0.10781754  0.48499984     0.98700
O224        O  0.27281996  0.14700147  0.48901112    -0.81900
O225        O  0.35546190  0.19939725  0.49202273    -0.84500
C226        C  0.38914939  0.22613611  0.48848428     1.03200
O227        O  0.38908822  0.24669139  0.47586168    -0.77300
O228        O  0.40283420  0.17796394  0.45495108    -0.77500
C229        C  0.39495711  0.13790663  0.44948163     1.03200
O230        O  0.27317889  0.17989687  0.43700230    -0.84800
O231        O  0.22407335  0.15566658  0.46233599    -0.81800
C232        C  0.20582512  0.19286897  0.46754911     0.98700
O233        O  0.23086963  0.22300218  0.47402951    -0.81900
O234        O  0.30621888  0.27809514  0.48103560    -0.84500
C235        C  0.30188941  0.30336210  0.46962979     1.03200
O236        O  0.31545738  0.28743875  0.45710438    -0.77300
O237        O  0.33745583  0.22165342  0.43494402    -0.77400
C238        C  0.30060265  0.20456482  0.42924632     1.03100
Cr239      Cr  0.29120195  0.14496867  0.45529881     1.93700
Cr240      Cr  0.29311280  0.21030614  0.48258631     1.93200
Cr241      Cr  0.35770888  0.23088053  0.45628558     1.39100
O242        O  0.31424119  0.19494693  0.46459000    -1.22500
O243        O  0.17257668  0.60648890  0.54305085    -0.84800
O244        O  0.25004182  0.61073916  0.52457023    -0.81800
C245        C  0.23235662  0.61128244  0.51148807     0.98700
O246        O  0.20754289  0.64532462  0.50737547    -0.81900
O247        O  0.15795546  0.72796600  0.50791062    -0.84500
C248        C  0.11659983  0.71965988  0.51219279     1.03200
O249        O  0.10955891  0.70498673  0.52534401    -0.77300
O250        O  0.12734027  0.66134168  0.55219231    -0.77500
C251        C  0.13394439  0.61875877  0.54876559     1.03200
O252        O  0.21639373  0.66800528  0.56433656    -0.84800
O253        O  0.28991351  0.68089630  0.54416300    -0.81800
C254        C  0.31016242  0.69312699  0.53219778     0.98700
O255        O  0.28814038  0.69319461  0.51984465    -0.81900
O256        O  0.23524158  0.77012837  0.52284844    -0.84500
C257        C  0.20513831  0.79830555  0.52763786     1.03200
O258        O  0.16761666  0.78376702  0.53371679    -0.77300
O259        O  0.19011362  0.73816731  0.55999841    -0.77400
C260        C  0.20742927  0.70882211  0.56899383     1.03100
Cr261      Cr  0.23003803  0.64498763  0.54337454     1.93700
Cr262      Cr  0.22046362  0.70759710  0.51586633     1.93200
Cr263      Cr  0.15249086  0.71978110  0.54224270     1.39100
O264        O  0.20074973  0.69090107  0.53383765    -1.22500
O265        O  0.86219455  0.87160345  0.30779413    -0.84800
O266        O  0.81412842  0.88864685  0.28217524    -0.81800
C267        C  0.80516532  0.88508050  0.26842581     0.98700
O268        O  0.80361616  0.84512473  0.26245558    -0.81900
O269        O  0.89197895  0.80328141  0.26252008    -0.84500
C270        C  0.92783551  0.78133537  0.26696259     1.03200
O271        O  0.92634412  0.75862142  0.27912288    -0.77300
O272        O  0.92259012  0.83131899  0.29942146    -0.77500
C273        C  0.90603560  0.86820145  0.30520896     1.03200
O274        O  0.79250404  0.79868795  0.31490426    -0.84800
O275        O  0.74442987  0.81848588  0.28905788    -0.81800
C276        C  0.73398515  0.78304546  0.28114743     0.98700
O277        O  0.76527798  0.76062789  0.27424205    -0.81900
O278        O  0.84934009  0.71625124  0.27179648    -0.84500
C279        C  0.84789405  0.69105209  0.28349482     1.03200
O280        O  0.85624180  0.70897722  0.29622845    -0.77300
O281        O  0.86499135  0.77796832  0.31872653    -0.77400
C282        C  0.82405692  0.78427744  0.32360565     1.03100
Cr283      Cr  0.80612017  0.84070845  0.29774859     1.93700
Cr284      Cr  0.82872774  0.78292773  0.26931506     1.93200
Cr285      Cr  0.88850168  0.77114597  0.29764126     1.39100
O286        O  0.84083224  0.79872992  0.28823670    -1.22500
O287        O  0.37240708  0.62445734  0.19795773    -0.84800
O288        O  0.31768274  0.60246177  0.22237218    -0.81800
C289        C  0.30205350  0.60683438  0.23554894     0.98700
O290        O  0.29524186  0.64705551  0.24080833    -0.81900
O291        O  0.38078370  0.69158716  0.24510056    -0.84500
C292        C  0.41657435  0.71621979  0.24244924     1.03200
O293        O  0.42009120  0.73752080  0.23006595    -0.77300
O294        O  0.42695309  0.66455928  0.21003360    -0.77500
C295        C  0.41419069  0.62856147  0.20288208     1.03200
O296        O  0.30271694  0.69366025  0.18889562    -0.84800
O297        O  0.24645727  0.66836126  0.21290710    -0.81800
C298        C  0.23164870  0.70408790  0.21987953     0.98700
O299        O  0.25960725  0.72958237  0.22718723    -0.81900
O300        O  0.33983427  0.77628090  0.23351103    -0.84500
C301        C  0.34066013  0.80090366  0.22172187     1.03200
O302        O  0.35621023  0.78371357  0.20968163    -0.77300
O303        O  0.37559181  0.71587504  0.18839724    -0.77400
C304        C  0.33683152  0.71105420  0.18178879     1.03100
Cr305      Cr  0.31204270  0.65069822  0.20634696     1.93700
Cr306      Cr  0.32057163  0.70957265  0.23525576     1.93200
Cr307      Cr  0.39091894  0.72332919  0.21007565     1.39100
O308        O  0.34101575  0.69396242  0.21723070    -1.22500
O309        O  0.19221881  0.11667083  0.30284279    -0.84800
O310        O  0.23301840  0.10057376  0.27553070    -0.81800
C311        C  0.24763011  0.10747699  0.26241214     0.98700
O312        O  0.25548779  0.14831874  0.25769977    -0.81900
O313        O  0.16760175  0.18963152  0.25635574    -0.84500
C314        C  0.13042955  0.20898327  0.26084130     1.03200
O315        O  0.12867484  0.22822198  0.27365268    -0.77300
O316        O  0.13237936  0.15672273  0.29402666    -0.77500
C317        C  0.14872335  0.12044158  0.30017096     1.03200
O318        O  0.26411341  0.18541670  0.30887783    -0.84800
O319        O  0.30829773  0.16419350  0.28269309    -0.81800
C320        C  0.32085223  0.20330957  0.27731631     0.98700
O321        O  0.29089824  0.23073472  0.27173763    -0.81900
O322        O  0.20640209  0.27473039  0.26701653    -0.84500
C323        C  0.20395184  0.29944131  0.27869710     1.03200
O324        O  0.19678488  0.28039097  0.29130585    -0.77300
O325        O  0.19328038  0.21033526  0.31331015    -0.77400
C326        C  0.23484136  0.20249968  0.31781801     1.03100
Cr327      Cr  0.24670916  0.14530313  0.29180281     1.93700
Cr328      Cr  0.22894470  0.20918236  0.26466687     1.93200
Cr329      Cr  0.16643409  0.21708678  0.29242886     1.39100
O330        O  0.21385060  0.19027155  0.28299295    -1.22500
O331        O  0.69032300  0.38865868  0.20480742    -0.84800
O332        O  0.76602633  0.38958108  0.22405536    -0.81800
C333        C  0.74706500  0.39086776  0.23689120     0.98700
O334        O  0.72489540  0.35574322  0.24173908    -0.81900
O335        O  0.67588510  0.27141556  0.24148542    -0.84500
C336        C  0.63526062  0.27933345  0.23639513     1.03200
O337        O  0.63027584  0.29280658  0.22305089    -0.77300
O338        O  0.64807801  0.33134732  0.19562257    -0.77500
C339        C  0.65330504  0.37457094  0.19839608     1.03200
O340        O  0.73772570  0.32608412  0.18506073    -0.84800
O341        O  0.80945025  0.31775378  0.20608077    -0.81800
C342        C  0.82936402  0.30846795  0.21838617     0.98700
O343        O  0.80645648  0.30838720  0.23052633    -0.81900
O344        O  0.75531762  0.22781402  0.22809277    -0.84500
C345        C  0.72526782  0.19889448  0.22339422     1.03200
O346        O  0.68850443  0.21306472  0.21671754    -0.77300
O347        O  0.71272767  0.25534616  0.18963135    -0.77400
C348        C  0.72986802  0.28483633  0.18062291     1.03100
Cr349      Cr  0.74886659  0.35198763  0.20571914     1.93700
Cr350      Cr  0.73901140  0.29213128  0.23400797     1.93200
Cr351      Cr  0.67371153  0.27540555  0.20691138     1.39100
O352        O  0.72047414  0.30630559  0.21553571    -1.22500
C353        C  0.95579378  0.30793865  0.23080295    -0.11300
C354        C  0.96936570  0.26288529  0.22636276     0.11300
C355        C  0.93908088  0.23577709  0.21719308    -0.03100
C356        C  0.89439518  0.25373560  0.21360563    -0.05900
C357        C  0.87969667  0.29731965  0.21904959    -0.16600
C358        C  0.91136881  0.32593217  0.22714068     0.02300
C359        C  0.01233373  0.24310917  0.23332296     0.12200
C360        C  0.95321443  0.18747975  0.21176552     0.62900
H361        H  0.86943468  0.23252765  0.20741282     0.12300
C362        C  0.89782014  0.37494403  0.23205117     0.55000
H363        H  0.97936035  0.32796299  0.23788810     0.08100
C364        C  0.05811119  0.25661250  0.22889505    -0.05700
C365        C  0.09659213  0.24102034  0.23750332    -0.06500
C366        C  0.09012548  0.21430674  0.25056647    -0.16100
C367        C  0.04467260  0.19854958  0.25443801    -0.01700
C368        C  0.00632666  0.21356088  0.24575610    -0.09200
C369        C  0.06606214  0.28898715  0.21561117     0.65100
H370        H  0.13184233  0.25214612  0.23466405     0.10500
C371        C  0.03688391  0.16580264  0.26760659     0.63500
H372        H  0.97094759  0.20389622  0.24898621     0.07900
F373        F  0.93576873  0.39909612  0.23796231    -0.19600
F374        F  0.86329072  0.37280109  0.24290031    -0.15800
F375        F  0.88112749  0.39985889  0.21983248    -0.19300
F376        F  0.95677212  0.15714182  0.22379589    -0.22700
F377        F  0.99612106  0.18976269  0.20458574    -0.24200
F378        F  0.92074778  0.16928790  0.20174685    -0.18100
F379        F  0.04603072  0.18886397  0.28091525    -0.20600
F380        F  0.06647674  0.12767339  0.26636187    -0.21800
F381        F  0.99114389  0.14934457  0.26808078    -0.19000
F382        F  0.11332127  0.29359046  0.21228494    -0.19100
F383        F  0.04855916  0.33294102  0.21878416    -0.22900
F384        F  0.04355685  0.27164530  0.20302848    -0.24500
C385        C  0.43459863  0.27050169  0.27214687    -0.11300
C386        C  0.46462572  0.23384112  0.26824922     0.11300
C387        C  0.45041417  0.18696718  0.27041074    -0.03100
C388        C  0.40341949  0.17822656  0.27428288    -0.05900
C389        C  0.37137677  0.21506935  0.27636255    -0.16600
C390        C  0.38808780  0.26189352  0.27649480     0.02300
C391        C  0.50825548  0.24570527  0.26022457     0.12200
C392        C  0.48461273  0.14672647  0.26836560     0.62900
H393        H  0.39088207  0.14248787  0.27490698     0.12300
C394        C  0.35726404  0.30295952  0.28077947     0.55000
H395        H  0.44699975  0.30615820  0.27087287     0.08100
C396        C  0.50842062  0.24999050  0.24443639    -0.05700
C397        C  0.55081602  0.26064850  0.23731672    -0.06500
C398        C  0.59251715  0.26907527  0.24540494    -0.16100
C399        C  0.59176399  0.26621713  0.26136463    -0.01700
C400        C  0.54925122  0.25427476  0.26848192    -0.09200
C401        C  0.46376746  0.24424662  0.23514095     0.65100
H402        H  0.55154358  0.26203292  0.22519622     0.10500
C403        C  0.63483678  0.27614537  0.27095409     0.63500
H404        H  0.54753055  0.25135114  0.28058970     0.07900
F405        F  0.32924105  0.31542997  0.26873316    -0.19600
F406        F  0.38406727  0.34139990  0.28484726    -0.15800
F407        F  0.32937645  0.29131872  0.29291675    -0.19300
F408        F  0.52218427  0.15240727  0.27806411    -0.22700
F409        F  0.50119882  0.14567926  0.25380750    -0.24200
F410        F  0.46384277  0.10393505  0.27141296    -0.18100
F411        F  0.62413692  0.27707965  0.28610200    -0.20600
F412        F  0.65354524  0.31926894  0.26718175    -0.21800
F413        F  0.66812261  0.24163898  0.26878837    -0.19000
F414        F  0.47217359  0.24929347  0.21992549    -0.19100
F415        F  0.43138892  0.27781791  0.23926895    -0.22900
F416        F  0.44447070  0.20042410  0.23738780    -0.24500
C417        C  0.53588963  0.43671930  0.19131463    -0.11300
C418        C  0.55068666  0.48343307  0.19140454     0.11300
C419        C  0.59921798  0.49390031  0.19177686    -0.03100
C420        C  0.63139548  0.45684232  0.19299130    -0.05900
C421        C  0.61675710  0.40983994  0.19412136    -0.16600
C422        C  0.56799986  0.39938920  0.19247237     0.02300
C423        C  0.51467873  0.52021427  0.19368362     0.12200
C424        C  0.61690085  0.54412125  0.19155014     0.62900
H425        H  0.66852509  0.46471993  0.19376023     0.12300
C426        C  0.54900850  0.34973696  0.19263790     0.55000
H427        H  0.49846241  0.42989484  0.19114103     0.08100
C428        C  0.48638939  0.53834689  0.18195403    -0.05700
C429        C  0.45363860  0.57372883  0.18538072    -0.06500
C430        C  0.44866174  0.59092871  0.20006217    -0.16100
C431        C  0.47562981  0.57109552  0.21184970    -0.01700
C432        C  0.50804367  0.53582618  0.20841251    -0.09200
C433        C  0.49054814  0.52017959  0.16600994     0.65100
H434        H  0.43189462  0.58856359  0.17659597     0.10500
C435        C  0.46998933  0.58658326  0.22803598     0.63500
H436        H  0.52925562  0.52038691  0.21723235     0.07900
F437        F  0.56869825  0.32429935  0.18106533    -0.19600
F438        F  0.50069866  0.34837443  0.19079216    -0.15800
F439        F  0.55936774  0.32890317  0.20621115    -0.19300
F440        F  0.60398410  0.56669656  0.20460438    -0.22700
F441        F  0.59800121  0.56771828  0.17941627    -0.24200
F442        F  0.66535123  0.54632056  0.19040243    -0.18100
F443        F  0.49418969  0.55780239  0.23788011    -0.20600
F444        F  0.42305024  0.58559747  0.23202405    -0.21800
F445        F  0.48735737  0.63145244  0.22964256    -0.19000
F446        F  0.46109881  0.54391545  0.15623816    -0.19100
F447        F  0.47860344  0.47331458  0.16559747    -0.22900
F448        F  0.53610035  0.52542129  0.16095471    -0.24500
C449        C  0.20523515  0.41715726  0.25995719    -0.11300
C450        C  0.24531550  0.43695646  0.26647562     0.11300
C451        C  0.26533858  0.41600610  0.27941646    -0.03100
C452        C  0.24723220  0.37266467  0.28441736    -0.05900
C453        C  0.20992646  0.35058904  0.27688041    -0.16600
C454        C  0.18650127  0.37479827  0.26514153     0.02300
C455        C  0.26456767  0.47996809  0.25939344     0.12200
C456        C  0.30628994  0.43872778  0.28756635     0.62900
H457        H  0.26404006  0.35431887  0.29359701     0.12300
C458        C  0.14316707  0.35591784  0.25727880     0.55000
H459        H  0.18904863  0.43458585  0.25044277     0.08100
C460        C  0.29211587  0.47826984  0.24621638    -0.05700
C461        C  0.30459750  0.52052058  0.23914158    -0.06500
C462        C  0.29022334  0.56435869  0.24469406    -0.16100
C463        C  0.26378261  0.56576992  0.25833818    -0.01700
C464        C  0.25106525  0.52323320  0.26523833    -0.09200
C465        C  0.30745329  0.43191202  0.23947668     0.65100
H466        H  0.32514768  0.51935855  0.22894909     0.10500
C467        C  0.24831401  0.61116081  0.26579511     0.63500
H468        H  0.22944334  0.52315289  0.27521690     0.07900
F469        F  0.11223263  0.39202166  0.25418777    -0.19600
F470        F  0.11951578  0.32365601  0.26602409    -0.15800
F471        F  0.15628271  0.33527022  0.24392129    -0.19300
F472        F  0.29282026  0.48194840  0.29298983    -0.22700
F473        F  0.34366679  0.44461346  0.27787200    -0.24200
F474        F  0.32140740  0.41196865  0.29959797    -0.18100
F475        F  0.22346793  0.60317825  0.27889295    -0.20600
F476        F  0.21936556  0.63629740  0.25628340    -0.21800
F477        F  0.28730032  0.63769359  0.26952219    -0.19000
F478        F  0.33668228  0.43817501  0.22723922    -0.19100
F479        F  0.26857398  0.40688970  0.23474721    -0.22900
F480        F  0.33159041  0.40593790  0.25006531    -0.24500
C481        C  0.32739604  0.93346814  0.21963537    -0.11300
C482        C  0.29340816  0.93973938  0.23083531     0.11300
C483        C  0.27048030  0.90055424  0.23716609    -0.03100
C484        C  0.28521455  0.85592397  0.23287889    -0.05900
C485        C  0.32244302  0.84922207  0.22278010    -0.16600
C486        C  0.34272973  0.88842131  0.21548592     0.02300
C487        C  0.28602327  0.98690488  0.23715980     0.12200
C488        C  0.23211607  0.90575259  0.24892202     0.62900
H489        H  0.26883506  0.82553024  0.23792495     0.12300
C490        C  0.38149993  0.88306608  0.20397153     0.55000
H491        H  0.34348462  0.96427696  0.21476078     0.08100
C492        C  0.31622538  0.00450176  0.24849693    -0.05700
C493        C  0.30254336  0.04474876  0.25631506    -0.06500
C494        C  0.26021888  0.06742830  0.25304200    -0.16100
C495        C  0.23124961  0.05145651  0.24122354    -0.01700
C496        C  0.24500235  0.01129328  0.23328408    -0.09200
C497        C  0.36207220  0.98025219  0.25254001     0.65100
H498        H  0.32442767  0.05852823  0.26525107     0.10500
C499        C  0.18550110  0.07596725  0.23746395     0.63500
H500        H  0.22281784  0.99730111  0.22446815     0.07900
F501        F  0.41916853  0.85957444  0.21025317    -0.19600
F502        F  0.39749214  0.92595981  0.19884685    -0.15800
F503        F  0.36481438  0.85821484  0.19175847    -0.19300
F504        F  0.19432000  0.92955280  0.24286716    -0.22700
F505        F  0.24910312  0.93020796  0.26117555    -0.24200
F506        F  0.21598252  0.86283025  0.25398266    -0.18100
F507        F  0.16130886  0.05349261  0.22605758    -0.20600
F508        F  0.19473411  0.12129030  0.23289198    -0.21800
F509        F  0.15697942  0.07698415  0.25000851    -0.19000
F510        F  0.38511091  0.00247091  0.26424169    -0.19100
F511        F  0.39166159  0.98040961  0.24026590    -0.22900
F512        F  0.35351247  0.93453122  0.25684334    -0.24500
C513        C  0.96647157  0.98807399  0.30802294    -0.11300
C514        C  0.01233477  0.97440355  0.31154491     0.11300
C515        C  0.02104252  0.92760731  0.31583355    -0.03100
C516        C  0.98455177  0.89443218  0.31433131    -0.05900
C517        C  0.93940870  0.90700199  0.30918256    -0.16600
C518        C  0.92957801  0.95536588  0.30675708     0.02300
C519        C  0.05075067  0.00896620  0.30891482     0.12200
C520        C  0.06866003  0.91309963  0.32191954     0.62900
H521        H  0.99144712  0.85796304  0.31679418     0.12300
C522        C  0.88217803  0.97259563  0.30134159     0.55000
H523        H  0.96067472  0.02448624  0.30519572     0.08100
C524        C  0.06906028  0.01629535  0.29429504    -0.05700
C525        C  0.10171136  0.05261126  0.29202616    -0.06500
C526        C  0.11671091  0.08129981  0.30383670    -0.16100
C527        C  0.10008655  0.07290798  0.31854459    -0.01700
C528        C  0.06666207  0.03702233  0.32083858    -0.09200
C529        C  0.05351547  0.98638250  0.28106951     0.65100
H530        H  0.11547842  0.05936680  0.28090981     0.10500
C531        C  0.11737087  0.10228697  0.33160619     0.63500
H532        H  0.05218526  0.03100562  0.33189970     0.07900
F533        F  0.87369210  0.95426378  0.28730954    -0.19600
F534        F  0.88056251  0.02088501  0.30012693    -0.15800
F535        F  0.84723158  0.95930393  0.31121291    -0.19300
F536        F  0.07864818  0.93868085  0.33470342    -0.22700
F537        F  0.10319752  0.92135489  0.31136914    -0.24200
F538        F  0.06973752  0.86610188  0.32567886    -0.18100
F539        F  0.09652960  0.08913664  0.34498199    -0.20600
F540        F  0.10720477  0.14891553  0.32901483    -0.21800
F541        F  0.16545264  0.09712194  0.33314726    -0.19000
F542        F  0.07824967  0.99712320  0.26815508    -0.19100
F543        F  0.00633881  0.99353404  0.27819041    -0.22900
F544        F  0.06079718  0.93958239  0.28422548    -0.24500
C545        C  0.10103673  0.69768439  0.22809248    -0.11300
C546        C  0.09127154  0.74528542  0.23037601     0.11300
C547        C  0.12522074  0.77927492  0.22637807    -0.03100
C548        C  0.16967061  0.76406340  0.22162999    -0.05900
C549        C  0.18091818  0.71626184  0.22053124    -0.16600
C550        C  0.14497651  0.68247470  0.22271823     0.02300
C551        C  0.04838745  0.75794849  0.23895515     0.12200
C552        C  0.11519620  0.83136522  0.22760374     0.62900
H553        H  0.19702684  0.78961228  0.21951556     0.12300
C554        C  0.15292756  0.63074149  0.21981255     0.55000
H555        H  0.07458718  0.67227952  0.23124120     0.08100
C556        C  0.00253841  0.75629622  0.23276760    -0.05700
C557        C  0.96402881  0.76658885  0.24212916    -0.06500
C558        C  0.97017482  0.77774785  0.25737367    -0.16100
C559        C  0.01631777  0.78119419  0.26334395    -0.01700
C560        C  0.05450324  0.77024491  0.25405488    -0.09200
C561        C  0.99430801  0.74304610  0.21647520     0.65100
H562        H  0.92857453  0.76406057  0.23775868     0.10500
C563        C  0.02563671  0.79787194  0.27926614     0.63500
H564        H  0.08987470  0.77074735  0.25857564     0.07900
F565        F  0.11285134  0.60453411  0.22246892    -0.19600
F566        F  0.18817154  0.61377951  0.22899022    -0.15800
F567        F  0.16543365  0.62437242  0.20496800    -0.19300
F568        F  0.11092102  0.84417822  0.24248044    -0.22700
F569        F  0.07393303  0.84191860  0.22012964    -0.24200
F570        F  0.15077176  0.85798888  0.22132666    -0.18100
F571        F  0.07293374  0.80624516  0.28178277    -0.20600
F572        F  0.01102844  0.76454436  0.28949335    -0.21800
F573        F  0.00189456  0.83929642  0.28173706    -0.19000
F574        F  0.94743473  0.74692077  0.21248605    -0.19100
F575        F  0.00791159  0.69727925  0.21409075    -0.22900
F576        F  0.02003813  0.77212379  0.20720021    -0.24500
C577        C  0.60392016  0.75259754  0.28676895    -0.11300
C578        C  0.59146503  0.73960990  0.27211143     0.11300
C579        C  0.62559663  0.74100818  0.26058525    -0.03100
C580        C  0.67166701  0.75433545  0.26427296    -0.05900
C581        C  0.68427354  0.76850830  0.27884015    -0.16600
C582        C  0.64989577  0.76753236  0.29036751     0.02300
C583        C  0.54118615  0.73208242  0.26844751     0.12200
C584        C  0.61293712  0.73087272  0.24428009     0.62900
H585        H  0.69808338  0.75561232  0.25555765     0.12300
C586        C  0.66142803  0.78179242  0.30635427     0.55000
H587        H  0.57675921  0.75246196  0.29525610     0.08100
C588        C  0.52067893  0.68711051  0.26716978    -0.05700
C589        C  0.47728535  0.68285199  0.25957132    -0.06500
C590        C  0.45439597  0.72239202  0.25369476    -0.16100
C591        C  0.47130766  0.76764239  0.25741050    -0.01700
C592        C  0.51496077  0.77166007  0.26460191    -0.09200
C593        C  0.54438015  0.64444555  0.27392678     0.65100
H594        H  0.46226545  0.64862774  0.25750931     0.10500
C595        C  0.44365040  0.81164153  0.25378166     0.63500
H596        H  0.53044747  0.80587866  0.26637593     0.07900
F597        F  0.62418050  0.77366129  0.31597705    -0.19600
F598        F  0.67183495  0.82902626  0.30685173    -0.15800
F599        F  0.69948116  0.75642429  0.31152204    -0.19300
F600        F  0.58003154  0.76285776  0.23928196    -0.22700
F601        F  0.59455338  0.68634556  0.24289598    -0.24200
F602        F  0.65164918  0.73391110  0.23495485    -0.18100
F603        F  0.46149036  0.85021991  0.26127307    -0.20600
F604        F  0.39740746  0.80597286  0.25815719    -0.21800
F605        F  0.44536946  0.82083296  0.23857793    -0.19000
F606        F  0.51807044  0.60425214  0.27170077    -0.19100
F607        F  0.54971820  0.65101068  0.28920959    -0.22900
F608        F  0.58814802  0.63764191  0.26764485    -0.24500
C609        C  0.71180329  0.07358142  0.23771409    -0.11300
C610        C  0.75870621  0.05868425  0.23734232     0.11300
C611        C  0.79304595  0.08746662  0.23050374    -0.03100
C612        C  0.77959606  0.13179719  0.22511833    -0.05900
C613        C  0.73334564  0.14837276  0.22650492    -0.16600
C614        C  0.69846304  0.11849094  0.23273089     0.02300
C615        C  0.77125600  0.01452079  0.24530090     0.12200
C616        C  0.84402336  0.07226520  0.22944074     0.62900
H617        H  0.80572356  0.15487418  0.22027877     0.12300
C618        C  0.64830479  0.13477867  0.23520172     0.55000
H619        H  0.68610462  0.05045807  0.24274999     0.08100
C620        C  0.77397102  0.01251676  0.26114435    -0.05700
C621        C  0.78434692  0.96950418  0.26803051    -0.06500
C622        C  0.79452836  0.92879758  0.25971477    -0.16100
C623        C  0.79425238  0.93172270  0.24375160    -0.01700
C624        C  0.78088018  0.97425288  0.23688477    -0.09200
C625        C  0.76627876  0.05571466  0.27080138     0.65100
H626        H  0.78422359  0.96756334  0.28015587     0.10500
C627        C  0.80928749  0.89117650  0.23387917     0.63500
H628        H  0.77822746  0.97662505  0.22478521     0.07900
F629        F  0.64835761  0.17417289  0.24415840    -0.19600
F630        F  0.62126964  0.10106737  0.24228626    -0.15800
F631        F  0.62729227  0.14496996  0.22158683    -0.19300
F632        F  0.84741824  0.03215146  0.22088042    -0.22700
F633        F  0.86176320  0.06354901  0.24362922    -0.24200
F634        F  0.87171657  0.10620720  0.22279236    -0.18100
F635        F  0.81269713  0.90421031  0.21894893    -0.20600
F636        F  0.77685748  0.85525167  0.23483936    -0.21800
F637        F  0.85302852  0.87531774  0.23838340    -0.19000
F638        F  0.77624963  0.04720867  0.28577808    -0.19100
F639        F  0.72002810  0.06998772  0.26978406    -0.22900
F640        F  0.79523821  0.09165247  0.26604797    -0.24500
C641        C  0.78313274  0.57447970  0.28279349    -0.11300
C642        C  0.80684820  0.55187850  0.27104956     0.11300
C643        C  0.84822923  0.57233313  0.26511075    -0.03100
C644        C  0.86244762  0.61655126  0.27038175    -0.05900
C645        C  0.83734618  0.64047614  0.28152883    -0.16600
C646        C  0.79817187  0.61836989  0.28833233     0.02300
C647        C  0.78518262  0.50980613  0.26390851     0.12200
C648        C  0.87667967  0.54805781  0.25297594     0.62900
H649        H  0.89241050  0.63387746  0.26535274     0.12300
C650        C  0.77107069  0.64207649  0.30082128     0.55000
H651        H  0.75155074  0.55834971  0.28715573     0.08100
C652        C  0.79106705  0.46390722  0.26960353    -0.05700
C653        C  0.77588064  0.42569898  0.26077629    -0.06500
C654        C  0.75484347  0.43235543  0.24663219    -0.16100
C655        C  0.74487648  0.47845478  0.24169131    -0.01700
C656        C  0.76011396  0.51645014  0.25049648    -0.09200
C657        C  0.81352405  0.45553334  0.28483486     0.65100
H658        H  0.78207243  0.39023100  0.26458173     0.10500
C659        C  0.71770872  0.48752727  0.22729688     0.63500
H660        H  0.75447239  0.55195444  0.24662766     0.07900
F661        F  0.80068392  0.65038323  0.31285799    -0.19600
F662        F  0.73408588  0.61476650  0.30583222    -0.15800
F663        F  0.75298034  0.68406245  0.29575695    -0.19300
F664        F  0.85030117  0.54368713  0.24001374    -0.22700
F665        F  0.88992588  0.50405510  0.25783392    -0.24200
F666        F  0.91707076  0.57273944  0.24945970    -0.18100
F667        F  0.70654899  0.53437940  0.22562029    -0.20600
F668        F  0.67617542  0.46235243  0.22749300    -0.21800
F669        F  0.74412567  0.47425967  0.21503658    -0.19000
F670        F  0.81648783  0.40832223  0.28819414    -0.19100
F671        F  0.78688666  0.47675665  0.29583858    -0.22900
F672        F  0.85838953  0.47405086  0.28515348    -0.24500
C673        C  0.28166808  0.25507032  0.38996562    -0.11300
C674        C  0.27439129  0.21389621  0.38169703     0.11300
C675        C  0.27673142  0.16995173  0.38903052    -0.03100
C676        C  0.28419430  0.16887199  0.40463184    -0.05900
C677        C  0.29129917  0.20994008  0.41295885    -0.16600
C678        C  0.29044420  0.25388100  0.40555928     0.02300
C679        C  0.26473023  0.21733264  0.36530525     0.12200
C680        C  0.27220852  0.12435944  0.38035956     0.62900
H681        H  0.28586279  0.13560835  0.41045001     0.12300
C682        C  0.29763405  0.29920196  0.41412926     0.55000
H683        H  0.28056800  0.28817941  0.38405293     0.08100
C684        C  0.21898552  0.22480471  0.35961230    -0.05700
C685        C  0.21143014  0.22158928  0.34402439    -0.06500
C686        C  0.24793343  0.21068310  0.33394305    -0.16100
C687        C  0.29455921  0.20555116  0.33975989    -0.01700
C688        C  0.30186039  0.20980407  0.35535499    -0.09200
C689        C  0.17823825  0.23537158  0.37003949     0.65100
H690        H  0.17620562  0.22618606  0.33968079     0.10500
C691        C  0.33673351  0.19436502  0.32992512     0.63500
H692        H  0.33660401  0.20505028  0.36009473     0.07900
F693        F  0.29055793  0.33801314  0.40509517    -0.19600
F694        F  0.34301591  0.30126701  0.41965300    -0.15800
F695        F  0.26628528  0.30149918  0.42594114    -0.19300
F696        F  0.30894250  0.12037416  0.37032851    -0.22700
F697        F  0.23020054  0.12335496  0.37254757    -0.24200
F698        F  0.27344199  0.08576327  0.38975377    -0.18100
F699        F  0.37846149  0.19502713  0.33794932    -0.20600
F700        F  0.34059423  0.22713177  0.31855970    -0.21800
F701        F  0.33185113  0.15006717  0.32386777    -0.19000
F702        F  0.13631388  0.24030741  0.36229139    -0.19100
F703        F  0.18689511  0.27663171  0.37764515    -0.22900
F704        F  0.17284480  0.19950192  0.38031746    -0.24500
C705        C  0.29290691  0.51583128  0.48890464    -0.11300
C706        C  0.25460832  0.49599113  0.48131003     0.11300
C707        C  0.20973553  0.51705162  0.48252421    -0.03100
C708        C  0.20419891  0.55529873  0.49225838    -0.05900
C709        C  0.24188126  0.57288081  0.50076398    -0.16600
C710        C  0.28757885  0.55442671  0.49848816     0.02300
C711        C  0.26064610  0.44705407  0.47624871     0.12200
C712        C  0.16649882  0.49987641  0.47418225     0.62900
H713        H  0.16961002  0.57057886  0.49360657     0.12300
C714        C  0.33073781  0.57527261  0.50597846     0.55000
H715        H  0.32673411  0.49872063  0.48805232     0.08100
C716        C  0.28569199  0.43408512  0.46324068    -0.05700
C717        C  0.29652307  0.38639209  0.46102675    -0.06500
C718        C  0.28369660  0.35197176  0.47158655    -0.16100
C719        C  0.25573626  0.36545866  0.48423965    -0.01700
C720        C  0.24491929  0.41280647  0.48615760    -0.09200
C721        C  0.30059479  0.47058442  0.45185690     0.65100
H722        H  0.31687460  0.37601735  0.45134041     0.10500
C723        C  0.23696386  0.33143037  0.49600745     0.63500
H724        H  0.22571620  0.42423132  0.49597429     0.07900
F725        F  0.33253299  0.62280703  0.50316188    -0.19600
F726        F  0.37187047  0.55575333  0.50059976    -0.15800
F727        F  0.32914154  0.56741023  0.52126965    -0.19300
F728        F  0.13323604  0.48496152  0.48442158    -0.22700
F729        F  0.17592642  0.46350839  0.46443537    -0.24200
F730        F  0.14790144  0.53636901  0.46587248    -0.18100
F731        F  0.27340382  0.31318265  0.50445505    -0.20600
F732        F  0.21230950  0.29595704  0.48913003    -0.21800
F733        F  0.20625855  0.35273485  0.50590580    -0.19000
F734        F  0.32189437  0.45052874  0.43949135    -0.19100
F735        F  0.33206832  0.50147934  0.45831759    -0.22900
F736        F  0.26157179  0.49506716  0.44695872    -0.24500
C737        C  0.30059064  0.99552170  0.50742686    -0.11300
C738        C  0.25320536  0.98638439  0.51062505     0.11300
C739        C  0.21854955  0.02006104  0.50715265    -0.03100
C740        C  0.23210999  0.06024364  0.49922512    -0.05900
C741        C  0.27871115  0.06700205  0.49459318    -0.16600
C742        C  0.31405327  0.03533928  0.49920806     0.02300
C743        C  0.24006998  0.93845013  0.51521043     0.12200
C744        C  0.16734501  0.01264373  0.51128882     0.62900
H745        H  0.20591970  0.08579726  0.49595346     0.12300
C746        C  0.36545272  0.04377755  0.49560400     0.55000
H747        H  0.32652232  0.96956398  0.51056884     0.08100
C748        C  0.23862395  0.90213757  0.50444996    -0.05700
C749        C  0.22603284  0.85735501  0.50919801    -0.06500
C750        C  0.21307642  0.84794313  0.52406872    -0.16100
C751        C  0.21303115  0.88433672  0.53478952    -0.01700
C752        C  0.22753471  0.92933435  0.53018776    -0.09200
C753        C  0.25017723  0.91039912  0.48797424     0.65100
H754        H  0.22663310  0.82873839  0.50123761     0.10500
C755        C  0.19904176  0.87533944  0.55093845     0.63500
H756        H  0.22911969  0.95775236  0.53819589     0.07900
F757        F  0.37245672  0.04174544  0.48027461    -0.19600
F758        F  0.39423847  0.01071767  0.50228719    -0.15800
F759        F  0.37876467  0.08739605  0.50080684    -0.19300
F760        F  0.16313395  0.00869018  0.52668480    -0.22700
F761        F  0.15041046  0.97234866  0.50459932    -0.24200
F762        F  0.13953159  0.04962026  0.50668617    -0.18100
F763        F  0.20311749  0.91524022  0.55964297    -0.20600
F764        F  0.22757022  0.84115201  0.55708334    -0.21800
F765        F  0.15279670  0.86057220  0.55146295    -0.19000
F766        F  0.24188466  0.87098534  0.47933280    -0.19100
F767        F  0.29702662  0.92211134  0.48644520    -0.22900
F768        F  0.22270856  0.94617860  0.48229990    -0.24500
C769        C  0.72300750  0.79734955  0.38796573    -0.11300
C770        C  0.76389981  0.77124650  0.38540368     0.11300
C771        C  0.78743737  0.74996505  0.39769511    -0.03100
C772        C  0.76917218  0.75617366  0.41225821    -0.05900
C773        C  0.72897188  0.78331984  0.41478175    -0.16600
C774        C  0.70470228  0.80326135  0.40247537     0.02300
C775        C  0.78215075  0.76932981  0.36976456     0.12200
C776        C  0.83157326  0.72102183  0.39544816     0.62900
H777        H  0.78685420  0.74094113  0.42185807     0.12300
C778        C  0.65915012  0.82989221  0.40470426     0.55000
H779        H  0.70588906  0.81379862  0.37846050     0.08100
C780        C  0.75997902  0.74260865  0.35837852    -0.05700
C781        C  0.77573025  0.74723296  0.34346285    -0.06500
C782        C  0.81324921  0.77691512  0.33971545    -0.16100
C783        C  0.83684929  0.80197995  0.35125627    -0.01700
C784        C  0.82018637  0.79826158  0.36606628    -0.09200
C785        C  0.71904965  0.71035671  0.36189488     0.65100
H786        H  0.75814965  0.72838356  0.33452391     0.10500
C787        C  0.87776231  0.83455079  0.34793138     0.63500
H788        H  0.83589317  0.81910936  0.37489889     0.07900
F789        F  0.63877029  0.84247241  0.39116719    -0.19600
F790        F  0.66747668  0.87022993  0.41283457    -0.15800
F791        F  0.62751778  0.80206145  0.41240360    -0.19300
F792        F  0.86730643  0.74878459  0.38989066    -0.22700
F793        F  0.82261551  0.68521491  0.38542195    -0.24200
F794        F  0.84713295  0.70130046  0.40876037    -0.18100
F795        F  0.89504748  0.85561435  0.36080043    -0.20600
F796        F  0.86323774  0.86950804  0.33827841    -0.21800
F797        F  0.91418217  0.80981060  0.34148367    -0.19000
F798        F  0.70818037  0.68171354  0.34985456    -0.19100
F799        F  0.67975173  0.73656952  0.36529654    -0.22900
F800        F  0.72999033  0.68200761  0.37399235    -0.24500
C801        C  0.50698363  0.06427379  0.45378379    -0.11300
C802        C  0.50046546  0.03062007  0.44255430     0.11300
C803        C  0.46166777  0.03483615  0.43268296    -0.03100
C804        C  0.42905274  0.07132381  0.43499777    -0.05900
C805        C  0.43455390  0.10441938  0.44659746    -0.16600
C806        C  0.47556238  0.10190410  0.45577709     0.02300
C807        C  0.53284426  0.98944553  0.44233418     0.12200
C808        C  0.45456599  0.00056660  0.41986892     0.62900
H809        H  0.39833700  0.07375879  0.42784717     0.12300
C810        C  0.48592251  0.13747059  0.46798994     0.55000
H811        H  0.53675784  0.06007268  0.46124999     0.08100
C812        C  0.57950764  0.99223328  0.43690117    -0.05700
C813        C  0.60892845  0.95278303  0.43831780    -0.06500
C814        C  0.59404721  0.91150256  0.44551812    -0.16100
C815        C  0.54751935  0.90909091  0.45114363    -0.01700
C816        C  0.51747437  0.94787134  0.44916096    -0.09200
C817        C  0.59890800  0.03724799  0.43025768     0.65100
H818        H  0.64494585  0.95469046  0.43446852     0.10500
C819        C  0.53095109  0.86774814  0.46040295     0.63500
H820        H  0.48217650  0.94705225  0.45366158     0.07900
F821        F  0.49144966  0.18140733  0.46170276    -0.19600
F822        F  0.52686624  0.12700759  0.47567181    -0.15800
F823        F  0.44959887  0.13811768  0.47824466    -0.19300
F824        F  0.44541397  0.95643619  0.42550343    -0.22700
F825        F  0.49457328  0.99880645  0.41112656    -0.24200
F826        F  0.41739625  0.01343174  0.41070894    -0.18100
F827        F  0.48487275  0.87285251  0.46505198    -0.20600
F828        F  0.55882172  0.86386446  0.47306689    -0.21800
F829        F  0.53374231  0.82712857  0.45205628    -0.19000
F830        F  0.64344299  0.03105546  0.42437784    -0.19100
F831        F  0.60175959  0.07116372  0.44126523    -0.22900
F832        F  0.56997464  0.05299198  0.41885210    -0.24500
C833        C  0.53523616  0.74204929  0.51878382    -0.11300
C834        C  0.49269544  0.73421712  0.51131532     0.11300
C835        C  0.49029039  0.73887036  0.49552849    -0.03100
C836        C  0.53134355  0.75061960  0.48765491    -0.05900
C837        C  0.57459231  0.75808264  0.49499832    -0.16600
C838        C  0.57659286  0.75371769  0.51095322     0.02300
C839        C  0.45025413  0.72353229  0.52029718     0.12200
C840        C  0.44438097  0.73164718  0.48704171     0.62900
H841        H  0.52979591  0.75388037  0.47556368     0.12300
C842        C  0.62145662  0.76181628  0.51988546     0.55000
H843        H  0.53559180  0.73890342  0.53089490     0.08100
C844        C  0.43820549  0.67739678  0.52464843    -0.05700
C845        C  0.39286658  0.66906830  0.53037063    -0.06500
C846        C  0.36038142  0.70554462  0.53197392    -0.16100
C847        C  0.37504831  0.75230803  0.52954961    -0.01700
C848        C  0.41971072  0.76045622  0.52350956    -0.09200
C849        C  0.47247623  0.63723745  0.52276328     0.65100
H850        H  0.38137867  0.63366428  0.53264331     0.10500
C851        C  0.34330692  0.79402083  0.53198139     0.63500
H852        H  0.43003940  0.79581108  0.52053903     0.07900
F853        F  0.61369552  0.76023118  0.53521174    -0.19600
F854        F  0.63977674  0.80544169  0.51654328    -0.15800
F855        F  0.65394664  0.72749220  0.51650435    -0.19300
F856        F  0.41197379  0.76491229  0.49138796    -0.22700
F857        F  0.42652276  0.68761343  0.49003147    -0.24200
F858        F  0.45029441  0.73550603  0.47167370    -0.18100
F859        F  0.36894006  0.83124672  0.53764124    -0.20600
F860        F  0.30807988  0.78411921  0.54215928    -0.21800
F861        F  0.32379714  0.80721768  0.51840183    -0.19000
F862        F  0.45341182  0.59512953  0.52747235    -0.19100
F863        F  0.51235666  0.64580087  0.53121826    -0.22900
F864        F  0.48498897  0.63274267  0.50785727    -0.24500
C865        C  0.92706990  0.75638130  0.46852439    -0.11300
C866        C  0.94781824  0.77587162  0.48137119     0.11300
C867        C  0.92603783  0.81395827  0.48870929    -0.03100
C868        C  0.88167310  0.82845812  0.48370397    -0.05900
C869        C  0.85902265  0.80663778  0.47157844    -0.16600
C870        C  0.88259975  0.77120565  0.46343569     0.02300
C871        C  0.99177431  0.75518802  0.48730163     0.12200
C872        C  0.94899888  0.83839646  0.50199839     0.62900
H873        H  0.86326696  0.85593355  0.48963705     0.12300
C874        C  0.86024143  0.74793394  0.44989049     0.55000
H875        H  0.94530676  0.72826249  0.46287012     0.08100
C876        C  0.99126060  0.71773919  0.49766642    -0.05700
C877        C  0.03331661  0.70582780  0.50505467    -0.06500
C878        C  0.07574550  0.72947050  0.50211515    -0.16100
C879        C  0.07664856  0.76402918  0.49051754    -0.01700
C880        C  0.03429935  0.77611615  0.48334729    -0.09200
C881        C  0.94628013  0.69100738  0.50096565     0.65100
H882        H  0.03306316  0.67850234  0.51348339     0.10500
C883        C  0.12093705  0.79040730  0.48618462     0.63500
H884        H  0.03343805  0.80382119  0.47504680     0.07900
F885        F  0.81809210  0.72737296  0.45388646    -0.19600
F886        F  0.88880169  0.71355054  0.44390571    -0.15800
F887        F  0.85225838  0.78110073  0.43887552    -0.19300
F888        F  0.99148565  0.85751456  0.49766417    -0.22700
F889        F  0.95664339  0.80681214  0.51350425    -0.24200
F890        F  0.92133612  0.87425276  0.50752259    -0.18100
F891        F  0.15445591  0.75947939  0.48097189    -0.20600
F892        F  0.13784537  0.81426044  0.49852868    -0.21800
F893        F  0.11288360  0.82290884  0.47493249    -0.19000
F894        F  0.95348498  0.65541813  0.51126523    -0.19100
F895        F  0.92938431  0.67115699  0.48787252    -0.22900
F896        F  0.91267548  0.72089207  0.50669385    -0.24500
C897        C  0.01941428  0.55441140  0.55914727    -0.11300
C898        C  0.02685426  0.51122075  0.55214806     0.11300
C899        C  0.06980839  0.50261163  0.54475188    -0.03100
C900        C  0.10400575  0.53810850  0.54452963    -0.05900
C901        C  0.09649305  0.58241509  0.55108921    -0.16600
C902        C  0.05338673  0.59041242  0.55883004     0.02300
C903        C  0.98727983  0.47732826  0.55150056     0.12200
C904        C  0.07892682  0.45663931  0.53667094     0.62900
H905        H  0.13651365  0.53173608  0.53861870     0.12300
C906        C  0.04228594  0.63636275  0.56662327     0.55000
H907        H  0.98581753  0.56008579  0.56451509     0.08100
C908        C  0.97709220  0.44586828  0.56333630    -0.05700
C909        C  0.93988388  0.41376685  0.56147820    -0.06500
C910        C  0.91221473  0.41322301  0.54838821    -0.16100
C911        C  0.92227412  0.44528382  0.53662311    -0.01700
C912        C  0.95945438  0.47715092  0.53851809    -0.09200
C913        C  0.00499694  0.44671159  0.57788236     0.65100
H914        H  0.93174498  0.38903992  0.57032144     0.10500
C915        C  0.89532099  0.44485381  0.52186631     0.63500
H916        H  0.96767269  0.50209091  0.52974063     0.07900
F917        F  0.07737275  0.64701396  0.57684228    -0.19600
F918        F  0.00030146  0.63433051  0.57441737    -0.15800
F919        F  0.03841339  0.67181189  0.55611292    -0.19300
F920        F  0.04836065  0.45209444  0.52468386    -0.22700
F921        F  0.07243205  0.41942775  0.54636321    -0.24200
F922        F  0.12430913  0.45412051  0.53117771    -0.18100
F923        F  0.91511231  0.47460898  0.51135426    -0.20600
F924        F  0.84960410  0.45922578  0.52423247    -0.21800
F925        F  0.89533790  0.40020403  0.51588253    -0.19000
F926        F  0.99085691  0.41171243  0.58763837    -0.19100
F927        F  0.99870893  0.48925921  0.58494891    -0.22900
F928        F  0.05226094  0.44057189  0.57499607    -0.24500
C929        C  0.97649205  0.23154191  0.47918732    -0.11300
C930        C  0.02058000  0.24285634  0.48514596     0.11300
C931        C  0.02340709  0.26881292  0.49861930    -0.03100
C932        C  0.98166959  0.27999267  0.50623183    -0.05900
C933        C  0.93709584  0.26598628  0.50093054    -0.16600
C934        C  0.93442317  0.24220068  0.48682243     0.02300
C935        C  0.06357846  0.22483362  0.47761538     0.12200
C936        C  0.07055528  0.28397198  0.50505512     0.62900
H937        H  0.98390620  0.29909644  0.51668642     0.12300
C938        C  0.88815204  0.22669223  0.47982210     0.55000
H939        H  0.97557523  0.21258212  0.46867692     0.08100
C940        C  0.08135638  0.17958004  0.48076147    -0.05700
C941        C  0.12702212  0.16812252  0.47593745    -0.06500
C942        C  0.15434369  0.20012817  0.46780727    -0.16100
C943        C  0.13373548  0.24258751  0.46279294    -0.01700
C944        C  0.08861616  0.25455774  0.46799312    -0.09200
C945        C  0.05269479  0.14435046  0.48962635     0.65100
H946        H  0.14290077  0.13538003  0.47937441     0.10500
C947        C  0.15875590  0.27432885  0.45168119     0.63500
H948        H  0.07329146  0.28804682  0.46509252     0.07900
F949        F  0.89450696  0.20549991  0.46600745    -0.19600
F950        F  0.85935127  0.26503878  0.47760532    -0.15800
F951        F  0.86616854  0.19459821  0.48907758    -0.19300
F952        F  0.09308646  0.31317894  0.49499805    -0.22700
F953        F  0.09841078  0.24524951  0.50773761    -0.24200
F954        F  0.06563542  0.30797673  0.51844533    -0.18100
F955        F  0.13057903  0.31125267  0.44718377    -0.20600
F956        F  0.17061077  0.24882167  0.43906757    -0.21800
F957        F  0.19905975  0.29286235  0.45792508    -0.19000
F958        F  0.07606457  0.10226785  0.49123487    -0.19100
F959        F  0.01085056  0.13551756  0.48224013    -0.22900
F960        F  0.04317419  0.16166134  0.50377488    -0.24500
C961        C  0.56986082  0.27083908  0.53549340    -0.11300
C962        C  0.56027134  0.24885690  0.52171895     0.11300
C963        C  0.59750260  0.23855784  0.51180234    -0.03100
C964        C  0.64308807  0.25138006  0.51593764    -0.05900
C965        C  0.65295791  0.27651036  0.52917603    -0.16600
C966        C  0.61591125  0.28504930  0.53945778     0.02300
C967        C  0.51099554  0.24477075  0.51647720     0.12200
C968        C  0.58906814  0.21641680  0.49647250     0.62900
H969        H  0.67158412  0.24331414  0.50835496     0.12300
C970        C  0.62423562  0.31044228  0.55415236     0.55000
H971        H  0.54052446  0.27882710  0.54276275     0.08100
C972        C  0.48479992  0.20284005  0.51740993    -0.05700
C973        C  0.44391814  0.19842272  0.50851850    -0.06500
C974        C  0.42862840  0.23498010  0.49908762    -0.16100
C975        C  0.45215281  0.27896269  0.49973477    -0.01700
C976        C  0.49308935  0.28279901  0.50843418    -0.09200
C977        C  0.49945086  0.16382220  0.52800931     0.65100
H978        H  0.42448343  0.16587579  0.50852848     0.10500
C979        C  0.43510055  0.32197005  0.49125256     0.63500
H980        H  0.51344843  0.31485993  0.50822164     0.07900
F981        F  0.58314640  0.31562071  0.56225996    -0.19600
F982        F  0.64225422  0.35456227  0.55135778    -0.15800
F983        F  0.65554810  0.28533219  0.56289391    -0.19300
F984        F  0.56123676  0.24529178  0.48774738    -0.22700
F985        F  0.56700969  0.17377812  0.49813146    -0.24200
F986        F  0.63054256  0.20882815  0.48876745    -0.18100
F987        F  0.45736857  0.36229364  0.49614785    -0.20600
F988        F  0.38741552  0.32794483  0.49345145    -0.21800
F989        F  0.44427829  0.31717725  0.47610146    -0.19000
F990        F  0.46967721  0.12560548  0.52697900    -0.19100
F991        F  0.49823399  0.18024986  0.54258863    -0.22900
F992        F  0.54449886  0.14882553  0.52491120    -0.24500
C993        C  0.71927288  0.01381584  0.50194797    -0.11300
C994        C  0.75190019  0.00956818  0.51365337     0.11300
C995        C  0.76519335  0.96487421  0.51894576    -0.03100
C996        C  0.74991342  0.92538289  0.51087851    -0.05900
C997        C  0.72124846  0.93013739  0.49812466    -0.16600
C998        C  0.70335035  0.97448526  0.49408132     0.02300
C999        C  0.77234060  0.05316949  0.51960683     0.12200
C1000       C  0.79535543  0.95931735  0.53291452     0.62900
H1001       H  0.76230457  0.89084376  0.51395467     0.12300
C1002       C  0.66879885  0.98035656  0.48124049     0.55000
H1003       H  0.70829436  0.04851521  0.49851176     0.08100
C1004       C  0.81278685  0.07359860  0.51304521    -0.05700
C1005       C  0.82635296  0.11854591  0.51768033    -0.06500
C1006       C  0.79801073  0.14487165  0.52729141    -0.16100
C1007       C  0.75755091  0.12448013  0.53383427    -0.01700
C1008       C  0.74627750  0.07801833  0.53023210    -0.09200
C1009       C  0.83784047  0.05100465  0.49985755     0.65100
H1010       H  0.85639271  0.13546508  0.51256386     0.10500
C1011       C  0.72441587  0.15257031  0.54360002     0.63500
H1012       H  0.71469636  0.06205364  0.53468583     0.07900
F1013       F  0.69157308  0.97356463  0.46775906    -0.19600
F1014       F  0.64918305  0.02466021  0.48107874    -0.15800
F1015       F  0.63267043  0.94820232  0.48264173    -0.19300
F1016       F  0.77293010  0.97977271  0.54498066    -0.22700
F1017       F  0.83844912  0.98073934  0.53096462    -0.24200
F1018       F  0.80315943  0.91269633  0.53632226    -0.18100
F1019       F  0.69970042  0.18357316  0.53472192    -0.20600
F1020       F  0.74940150  0.17714671  0.55434138    -0.21800
F1021       F  0.69233328  0.12414634  0.55090505    -0.19000
F1022       F  0.87886797  0.07451142  0.49625155    -0.19100
F1023       F  0.80862273  0.05184293  0.48743914    -0.22900
F1024       F  0.84946491  0.00516885  0.50303261    -0.24500
C1025       C  0.76820269  0.58939120  0.48764887    -0.11300
C1026       C  0.74362528  0.55518686  0.47968079     0.11300
C1027       C  0.71120406  0.56862340  0.46842054    -0.03100
C1028       C  0.70432000  0.61670867  0.46560895    -0.05900
C1029       C  0.72836193  0.65149188  0.47379884    -0.16600
C1030       C  0.76190463  0.63733275  0.48493260     0.02300
C1031       C  0.74947879  0.50615289  0.48485938     0.12200
C1032       C  0.68348592  0.53238592  0.45962174     0.62900
H1033       H  0.67903769  0.62744131  0.45719103     0.12300
C1034       C  0.79036806  0.67158099  0.49445811     0.55000
H1035       H  0.79170573  0.57779804  0.49647478     0.08100
C1036       C  0.79178988  0.48091158  0.48282074    -0.05700
C1037       C  0.79842011  0.43893234  0.49086186    -0.06500
C1038       C  0.76412637  0.42190700  0.50078623    -0.16100
C1039       C  0.71995139  0.44511164  0.50163285    -0.01700
C1040       C  0.71415080  0.48757943  0.49396325    -0.09200
C1041       C  0.83042473  0.49914855  0.47266068     0.65100
H1042       H  0.83156075  0.42054019  0.49007308     0.10500
C1043       C  0.67854667  0.42566527  0.51044555     0.63500
H1044       H  0.68247697  0.50788679  0.49560090     0.07900
F1045       F  0.81902443  0.69843237  0.48535374    -0.19600
F1046       F  0.81927978  0.64902317  0.50467929    -0.15800
F1047       F  0.76050347  0.70007608  0.50256572    -0.19300
F1048       F  0.65193056  0.50999051  0.46895455    -0.22700
F1049       F  0.71369127  0.49963270  0.45358065    -0.24200
F1050       F  0.65838259  0.55248693  0.44795962    -0.18100
F1051       F  0.68575361  0.43183656  0.52566585    -0.20600
F1052       F  0.67280800  0.37861156  0.50733484    -0.21800
F1053       F  0.63698744  0.44792814  0.50665199    -0.19000
F1054       F  0.86446016  0.46553852  0.47013270    -0.19100
F1055       F  0.85186517  0.53754737  0.47915443    -0.22900
F1056       F  0.81176242  0.51202918  0.45892266    -0.24500
C1057       C  0.96923885  0.52038920  0.95523177    -0.11300
C1058       C  0.00774241  0.52990515  0.94598265     0.11300
C1059       C  0.00876194  0.57173756  0.93747345    -0.03100
C1060       C  0.97208213  0.60432951  0.93931130    -0.05900
C1061       C  0.93425757  0.59557888  0.94901916    -0.16600
C1062       C  0.93271359  0.55284922  0.95710302     0.02300
C1063       C  0.04698592  0.49569506  0.94604818     0.12200
C1064       C  0.04837143  0.58175444  0.92656415     0.62900
H1065       H  0.97298090  0.63734610  0.93334218     0.12300
C1066       C  0.89376567  0.54229820  0.96811572     0.55000
H1067       H  0.96900816  0.48773679  0.96141932     0.08100
C1068       C  0.08083746  0.49514705  0.95775687    -0.05700
C1069       C  0.11456439  0.45927487  0.95796255    -0.06500
C1070       C  0.11445133  0.42365518  0.94718270    -0.16100
C1071       C  0.08096205  0.42418097  0.93545585    -0.01700
C1072       C  0.04760580  0.46056115  0.93504042    -0.09200
C1073       C  0.08048610  0.53141251  0.97023610     0.65100
H1074       H  0.14038675  0.45770099  0.96690582     0.10500
C1075       C  0.08054846  0.38618422  0.92360279     0.63500
H1076       H  0.02088948  0.46118402  0.92636560     0.07900
F1077       F  0.89204792  0.57695163  0.97891303    -0.19600
F1078       F  0.90022772  0.49989425  0.97536595    -0.15800
F1079       F  0.85166748  0.54026720  0.96046470    -0.19300
F1080       F  0.04930029  0.54751355  0.91562641    -0.22700
F1081       F  0.09096377  0.58209917  0.93404090    -0.24200
F1082       F  0.04284841  0.62462118  0.91952730    -0.18100
F1083       F  0.04644372  0.39406815  0.91278918    -0.20600
F1084       F  0.07164210  0.34335073  0.93025308    -0.21800
F1085       F  0.12376728  0.38458231  0.91655990    -0.19000
F1086       F  0.11787236  0.52562602  0.98003697    -0.19100
F1087       F  0.03948860  0.52762044  0.97842242    -0.22900
F1088       F  0.08338714  0.57589965  0.96422511    -0.24500
C1089       C  0.36321276  0.74620714  0.14097770    -0.11300
C1090       C  0.31786794  0.75132207  0.13516258     0.11300
C1091       C  0.27870258  0.74166303  0.14438461    -0.03100
C1092       C  0.28645321  0.72913031  0.15951325    -0.05900
C1093       C  0.33204019  0.72495363  0.16560379    -0.16600
C1094       C  0.37143400  0.73325049  0.15600153     0.02300
C1095       C  0.31327359  0.76573858  0.11915926     0.12200
C1096       C  0.22906787  0.74373588  0.13814585     0.62900
H1097       H  0.25662611  0.72224409  0.16669610     0.12300
C1098       C  0.42222354  0.72817537  0.16119614     0.55000
H1099       H  0.39241049  0.75286821  0.13350029     0.08100
C1100       C  0.31850713  0.81291466  0.11458877    -0.05700
C1101       C  0.31823978  0.82341107  0.09913714    -0.06500
C1102       C  0.31436483  0.78825697  0.08815513    -0.16100
C1103       C  0.30791941  0.74101267  0.09282270    -0.01700
C1104       C  0.30768610  0.73074674  0.10829856    -0.09200
C1105       C  0.32584007  0.85179960  0.12598542     0.65100
H1106       H  0.32331612  0.85922514  0.09550388     0.10500
C1107       C  0.30112274  0.70132099  0.08167589     0.63500
H1108       H  0.30456388  0.69485639  0.11209053     0.07900
F1109       F  0.43246285  0.76173433  0.17189790    -0.19600
F1110       F  0.45379857  0.73403891  0.14954451    -0.15800
F1111       F  0.42939355  0.68392747  0.16707806    -0.19300
F1112       F  0.22356393  0.70998078  0.12718141    -0.22700
F1113       F  0.22051976  0.78724303  0.13193534    -0.24200
F1114       F  0.19575590  0.73577158  0.14914870    -0.18100
F1115       F  0.34291316  0.69219498  0.07437267    -0.20600
F1116       F  0.26695502  0.71321945  0.07128080    -0.21800
F1117       F  0.28692279  0.66044813  0.08869490    -0.19000
F1118       F  0.32701509  0.89545915  0.11924898    -0.19100
F1119       F  0.36796873  0.84528646  0.13344249    -0.22900
F1120       F  0.28970678  0.85167811  0.13631212    -0.24500
C1121       C  0.09052645  0.81632922  0.02087028    -0.11300
C1122       C  0.07634386  0.77153841  0.02544172     0.11300
C1123       C  0.10676117  0.74422433  0.03453923    -0.03100
C1124       C  0.15141201  0.76241967  0.03832194    -0.05900
C1125       C  0.16643802  0.80613686  0.03295880    -0.16600
C1126       C  0.13517545  0.83417244  0.02444361     0.02300
C1127       C  0.03299257  0.75226276  0.01837150     0.12200
C1128       C  0.09262586  0.69569455  0.03984093     0.62900
H1129       H  0.17606560  0.74141880  0.04469653     0.12300
C1130       C  0.14946857  0.88222075  0.01872471     0.55000
H1131       H  0.06720749  0.83621515  0.01366356     0.08100
C1132       C  0.98723493  0.76607764  0.02274498    -0.05700
C1133       C  0.94865210  0.75250649  0.01376022    -0.06500
C1134       C  0.95490608  0.72757091  0.00034298    -0.16100
C1135       C  0.00041088  0.71202329  0.99636490    -0.01700
C1136       C  0.03872756  0.72469488  0.00549032    -0.09200
C1137       C  0.97945283  0.79671735  0.03642084     0.65100
H1138       H  0.91355977  0.76396130  0.01661847     0.10500
C1139       C  0.00858927  0.68257362  0.98245628     0.63500
H1140       H  0.07405484  0.71516497  0.00220211     0.07900
F1141       F  0.11163661  0.90638784  0.01276706    -0.19600
F1142       F  0.18292452  0.87778003  0.00760452    -0.15800
F1143       F  0.16775042  0.90848525  0.03039311    -0.19300
F1144       F  0.08535367  0.66659499  0.02768131    -0.22700
F1145       F  0.05164924  0.69830283  0.04806259    -0.24200
F1146       F  0.12684622  0.67565514  0.04884589    -0.18100
F1147       F  0.00087415  0.70918310  0.96973131    -0.20600
F1148       F  0.97834871  0.64464863  0.98248289    -0.21800
F1149       F  0.05408297  0.66561680  0.98187097    -0.19000
F1150       F  0.93214159  0.80310980  0.03932420    -0.19100
F1151       F  0.99948937  0.84021150  0.03414534    -0.22900
F1152       F  0.99966754  0.77632793  0.04892570    -0.24500
C1153       C  0.49785627  0.76826998  0.98392818    -0.11300
C1154       C  0.54098836  0.77176521  0.99139830     0.11300
C1155       C  0.54253002  0.78847842  0.00631095    -0.03100
C1156       C  0.50007470  0.79897840  0.01354490    -0.05900
C1157       C  0.45605731  0.79315486  0.00646419    -0.16600
C1158       C  0.45503758  0.77829321  0.99116614     0.02300
C1159       C  0.58423439  0.75654380  0.98353001     0.12200
C1160       C  0.58889796  0.79465219  0.01462174     0.62900
H1161       H  0.50123613  0.81094224  0.02505313     0.12300
C1162       C  0.40964368  0.77230047  0.98236426     0.55000
H1163       H  0.49810787  0.75620325  0.97241347     0.08100
C1164       C  0.59873535  0.70917552  0.98347903    -0.05700
C1165       C  0.64397562  0.69836213  0.97817807    -0.06500
C1166       C  0.67449590  0.73335950  0.97295267    -0.16100
C1167       C  0.65777570  0.77986249  0.97151776    -0.01700
C1168       C  0.61276231  0.79073306  0.97692674    -0.09200
C1169       C  0.56706991  0.67061695  0.98944101     0.65100
H1170       H  0.65689819  0.66289292  0.97899067     0.10500
C1171       C  0.68788296  0.81863812  0.96507621     0.63500
H1172       H  0.60051076  0.82661716  0.97676392     0.07900
F1173       F  0.41780359  0.76185191  0.96742652    -0.19600
F1174       F  0.38405831  0.81329748  0.98278033    -0.15800
F1175       F  0.38352908  0.73606001  0.98839588    -0.19300
F1176       F  0.61609170  0.82779161  0.00739207    -0.22700
F1177       F  0.61301530  0.75271729  0.01505539    -0.24200
F1178       F  0.58236782  0.80940435  0.02926405    -0.18100
F1179       F  0.71372774  0.80238108  0.95303115    -0.20600
F1180       F  0.71789629  0.83505702  0.97608775    -0.21800
F1181       F  0.66051209  0.85546543  0.96002407    -0.19000
F1182       F  0.58825134  0.62712828  0.98859446    -0.19100
F1183       F  0.52611387  0.66902585  0.98108421    -0.22900
F1184       F  0.55599479  0.67904456  0.00429124    -0.24500
C1185       C  0.34303861  0.58793645  0.02094011    -0.11300
C1186       C  0.29647532  0.57616314  0.01739585     0.11300
C1187       C  0.25972012  0.60733823  0.02090309    -0.03100
C1188       C  0.27137602  0.65155361  0.02655492    -0.05900
C1189       C  0.31837063  0.66576919  0.02855992    -0.16600
C1190       C  0.35491908  0.63255287  0.02652915     0.02300
C1191       C  0.28711163  0.53235378  0.00908069     0.12200
C1192       C  0.20850591  0.59449819  0.01822518     0.62900
H1193       H  0.24356323  0.67637676  0.02880683     0.12300
C1194       C  0.40608802  0.64415600  0.02965784     0.55000
H1195       H  0.37021785  0.56253992  0.01856892     0.08100
C1196       C  0.29086107  0.53044148  0.99326864    -0.05700
C1197       C  0.27778039  0.48902257  0.98591434    -0.06500
C1198       C  0.26136137  0.44971976  0.99383188    -0.16100
C1199       C  0.25770063  0.45182320  0.00972836    -0.01700
C1200       C  0.27132161  0.49324090  0.01707952    -0.09200
C1201       C  0.30853890  0.57202171  0.98421656     0.65100
H1202       H  0.28097246  0.48682555  0.97382785     0.10500
C1203       C  0.23780530  0.41166941  0.01891829     0.63500
H1204       H  0.26898210  0.49587787  0.02918004     0.07900
F1205       F  0.42078225  0.68009772  0.02037079    -0.19600
F1206       F  0.43515134  0.60613495  0.02720880    -0.15800
F1207       F  0.41128347  0.65736918  0.04450261    -0.19300
F1208       F  0.19660116  0.55641494  0.02700430    -0.22700
F1209       F  0.20126564  0.58343139  0.00329501    -0.24200
F1210       F  0.17857965  0.63086592  0.02184054    -0.18100
F1211       F  0.26852451  0.37426447  0.01877447    -0.20600
F1212       F  0.19490953  0.39802537  0.01303710    -0.21800
F1213       F  0.23074869  0.42427831  0.03374254    -0.19000
F1214       F  0.30786931  0.56315938  0.96894308    -0.19100
F1215       F  0.35428094  0.58229062  0.98829941    -0.22900
F1216       F  0.28065146  0.61070622  0.98683624    -0.24500
C1217       C  0.21439982  0.08079162  0.97397489    -0.11300
C1218       C  0.25705362  0.07346823  0.98154432     0.11300
C1219       C  0.29058538  0.10986044  0.98247909    -0.03100
C1220       C  0.27805316  0.15429162  0.97715830    -0.05900
C1221       C  0.23379095  0.16279214  0.97076955    -0.16600
C1222       C  0.20193590  0.12540652  0.96858426     0.02300
C1223       C  0.26380913  0.02921985  0.98986531     0.12200
C1224       C  0.33866142  0.10204321  0.98951450     0.62900
H1225       H  0.30185188  0.18352716  0.97865974     0.12300
C1226       C  0.15415834  0.13331404  0.96147414     0.55000
H1227       H  0.18983411  0.05192339  0.97316851     0.08100
C1228       C  0.24644457  0.02369791  0.00459135    -0.05700
C1229       C  0.25756780  0.98270964  0.01246536    -0.06500
C1230       C  0.28495839  0.94680106  0.00611128    -0.16100
C1231       C  0.30117857  0.95215508  0.99105367    -0.01700
C1232       C  0.29006951  0.99356450  0.98323658    -0.09200
C1233       C  0.21635152  0.06110568  0.01197895     0.65100
H1234       H  0.24473452  0.97871454  0.02380918     0.10500
C1235       C  0.32987312  0.91503872  0.98306501     0.63500
H1236       H  0.30243338  0.99901543  0.97188447     0.07900
F1237       F  0.12907606  0.16555113  0.96978651    -0.19600
F1238       F  0.12813765  0.09241104  0.96074693    -0.15800
F1239       F  0.15983246  0.15003180  0.94702707    -0.19300
F1240       F  0.36275574  0.06861171  0.98141136    -0.22700
F1241       F  0.33406851  0.08695868  0.00418533    -0.24200
F1242       F  0.36533152  0.14254251  0.98960739    -0.18100
F1243       F  0.30474210  0.87361312  0.98249481    -0.20600
F1244       F  0.37193637  0.90826797  0.99055659    -0.21800
F1245       F  0.34041998  0.92767883  0.96844876    -0.19000
F1246       F  0.20422379  0.04921918  0.02653134    -0.19100
F1247       F  0.17531061  0.06706485  0.00387964    -0.22900
F1248       F  0.24041726  0.10312242  0.01247900    -0.24500
C1249       C  0.77106668  0.20762050  0.11111350    -0.11300
C1250       C  0.74340241  0.24383337  0.11690440     0.11300
C1251       C  0.71866379  0.27350450  0.10694173    -0.03100
C1252       C  0.71862702  0.26284662  0.09152913    -0.05900
C1253       C  0.74404730  0.22476924  0.08565411    -0.16600
C1254       C  0.77275308  0.19803604  0.09558586     0.02300
C1255       C  0.74189658  0.25082053  0.13345561     0.12200
C1256       C  0.69269915  0.31646095  0.11258126     0.62900
H1257       H  0.69788366  0.28411270  0.08395804     0.12300
C1258       C  0.80614486  0.16054751  0.08998237     0.55000
H1259       H  0.79116667  0.18659581  0.11894529     0.08100
C1260       C  0.70905403  0.22727329  0.14267040    -0.05700
C1261       C  0.70727439  0.23844935  0.15807030    -0.06500
C1262       C  0.73719051  0.27229262  0.16450074    -0.16100
C1263       C  0.77162319  0.29420144  0.15525873    -0.01700
C1264       C  0.77342839  0.28261682  0.13990418    -0.09200
C1265       C  0.67621804  0.19040924  0.13621845     0.65100
H1266       H  0.68149137  0.22150652  0.16515127     0.10500
C1267       C  0.80661436  0.32961354  0.16137435     0.63500
H1268       H  0.79870127  0.29948257  0.13260973     0.07900
F1269       F  0.83682064  0.14597848  0.10112867    -0.19600
F1270       F  0.83283464  0.17803755  0.07828479    -0.15800
F1271       F  0.78105821  0.12190193  0.08517107    -0.19300
F1272       F  0.72400834  0.34649151  0.11953595    -0.22700
F1273       F  0.65846732  0.30352037  0.12274305    -0.24200
F1274       F  0.67119140  0.34077675  0.10101101    -0.18100
F1275       F  0.84131956  0.34012170  0.15104224    -0.20600
F1276       F  0.82838221  0.31186312  0.17404731    -0.21800
F1277       F  0.78375530  0.37082798  0.16487125    -0.19000
F1278       F  0.64587641  0.17280977  0.14695735    -0.19100
F1279       F  0.70228797  0.15363059  0.13060901    -0.22900
F1280       F  0.64943905  0.20925516  0.12475257    -0.24500
C1281       C  0.46870068  0.00338368  0.04407436    -0.11300
C1282       C  0.50428197  0.99708266  0.05473668     0.11300
C1283       C  0.50089804  0.95980652  0.06516407    -0.03100
C1284       C  0.46195146  0.92930377  0.06430978    -0.05900
C1285       C  0.42699821  0.93440078  0.05322780    -0.16600
C1286       C  0.43092412  0.97188474  0.04271513     0.02300
C1287       C  0.54584583  0.02877561  0.05397741     0.12200
C1288       C  0.53884746  0.95169290  0.07687961     0.62900
H1289       H  0.45893832  0.90057732  0.07218254     0.12300
C1290       C  0.39774399  0.97718308  0.02941469     0.55000
H1291       H  0.47191255  0.03254831  0.03637016     0.08100
C1292       C  0.58005282  0.02415273  0.04256611    -0.05700
C1293       C  0.61690907  0.05688344  0.04188666    -0.06500
C1294       C  0.62054660  0.09437255  0.05206060    -0.16100
C1295       C  0.58693079  0.09809672  0.06378771    -0.01700
C1296       C  0.54978082  0.06536978  0.06438526    -0.09200
C1297       C  0.57694268  0.98571166  0.03081035     0.65100
H1298       H  0.64239375  0.05431775  0.03292521     0.10500
C1299       C  0.59029030  0.13563386  0.07579846     0.63500
H1300       H  0.52281792  0.06857004  0.07286984     0.07900
F1301       F  0.39598652  0.93564203  0.02149533    -0.19600
F1302       F  0.41235968  0.01177154  0.01957166    -0.15800
F1303       F  0.35332064  0.98898392  0.03434407    -0.19300
F1304       F  0.54122187  0.98954921  0.08648561    -0.22700
F1305       F  0.58184878  0.94603789  0.06993597    -0.24200
F1306       F  0.53006907  0.91211314  0.08540009    -0.18100
F1307       F  0.55891645  0.12771305  0.08737872    -0.20600
F1308       F  0.58020916  0.17890896  0.06964529    -0.21800
F1309       F  0.63505270  0.13620137  0.08189837    -0.19000
F1310       F  0.61742983  0.98307714  0.02229354    -0.19100
F1311       F  0.53980860  0.99451791  0.02119702    -0.22900
F1312       F  0.57031575  0.94271606  0.03762114    -0.24500
C1313       C  0.55788476  0.28977641  0.98520083    -0.11300
C1314       C  0.51470088  0.27325932  0.99051803     0.11300
C1315       C  0.51367023  0.24201325  0.00282352    -0.03100
C1316       C  0.55631230  0.22873502  0.00956948    -0.05900
C1317       C  0.60001150  0.24619688  0.00466703    -0.16600
C1318       C  0.60078251  0.27753280  0.99215953     0.02300
C1319       C  0.47062669  0.28955700  0.98320040     0.12200
C1320       C  0.46750190  0.22313790  0.00890667     0.62900
H1321       H  0.55555495  0.20474472  0.01897123     0.12300
C1322       C  0.64589806  0.29939424  0.98630551     0.55000
H1323       H  0.55744818  0.31326380  0.97565865     0.08100
C1324       C  0.44879328  0.33219243  0.98726784    -0.05700
C1325       C  0.40318872  0.34140579  0.98187708    -0.06500
C1326       C  0.37952834  0.30968084  0.97250613    -0.16100
C1327       C  0.40344673  0.26956824  0.96717544    -0.01700
C1328       C  0.44867887  0.26003576  0.97274934    -0.09200
C1329       C  0.47308084  0.36707386  0.99754845     0.65100
H1330       H  0.38460283  0.37233314  0.98560030     0.10500
C1331       C  0.38340745  0.23606856  0.95559767     0.63500
H1332       H  0.46652257  0.22836610  0.96926769     0.07900
F1333       F  0.63761857  0.33016749  0.97458127    -0.19600
F1334       F  0.67554507  0.26481167  0.98106453    -0.15800
F1335       F  0.66783263  0.32427963  0.99764427    -0.19300
F1336       F  0.44543305  0.19647330  0.99805476    -0.22700
F1337       F  0.43841332  0.25972575  0.01291786    -0.24200
F1338       F  0.47409201  0.19525450  0.02144892    -0.18100
F1339       F  0.41422690  0.23295083  0.94366223    -0.20600
F1340       F  0.34033733  0.25002119  0.94997643    -0.21800
F1341       F  0.37849185  0.19219903  0.96193738    -0.19000
F1342       F  0.44504031  0.40555562  0.00043943    -0.19100
F1343       F  0.51393232  0.38282280  0.99086838    -0.22900
F1344       F  0.48408507  0.34618558  0.01110721    -0.24500
C1345       C  0.01726700  0.29331756  0.00554769    -0.11300
C1346       C  0.02276948  0.25926824  0.01679664     0.11300
C1347       C  0.06824058  0.24106197  0.01976753    -0.03100
C1348       C  0.10604035  0.25562520  0.01070535    -0.05900
C1349       C  0.09987762  0.28780700  0.99896349    -0.16600
C1350       C  0.05521114  0.30817655  0.99661747     0.02300
C1351       C  0.97906724  0.23856207  0.02315263     0.12200
C1352       C  0.07878531  0.20555722  0.03199524     0.62900
H1353       H  0.14046957  0.24032934  0.01246675     0.12300
C1354       C  0.04750208  0.34451255  0.98445432     0.55000
H1355       H  0.98227270  0.30642103  0.00326936     0.08100
C1356       C  0.95116733  0.26175949  0.03395706    -0.05700
C1357       C  0.90662700  0.24307011  0.03752851    -0.06500
C1358       C  0.88922925  0.20280504  0.03039747    -0.16100
C1359       C  0.91958892  0.17685216  0.02094042    -0.01700
C1360       C  0.96371835  0.19570033  0.01728268    -0.09200
C1361       C  0.96825417  0.30624162  0.04146425     0.65100
H1362       H  0.88402096  0.26115845  0.04530964     0.10500
C1363       C  0.90811449  0.12881401  0.01471360     0.63500
H1364       H  0.98613098  0.17718437  0.00946780     0.07900
F1365       F  0.00300105  0.36386132  0.98516981    -0.19600
F1366       F  0.05268055  0.32399970  0.97052847    -0.15800
F1367       F  0.07992780  0.38029890  0.98602423    -0.19300
F1368       F  0.09286753  0.16401001  0.02547173    -0.22700
F1369       F  0.04076984  0.19654901  0.04117369    -0.24200
F1370       F  0.11491100  0.22221352  0.04094141    -0.18100
F1371       F  0.94265429  0.09769925  0.01917341    -0.20600
F1372       F  0.90738687  0.13066865  0.99921331    -0.21800
F1373       F  0.86561125  0.11158980  0.01968728    -0.19000
F1374       F  0.93758183  0.32120135  0.05248768    -0.19100
F1375       F  0.97255151  0.34156485  0.03095175    -0.22900
F1376       F  0.01154125  0.29836980  0.04807901    -0.24500
C1377       C  0.78931907  0.03991589  0.97924904    -0.11300
C1378       C  0.77878924  0.99593178  0.98536772     0.11300
C1379       C  0.75336677  0.99295141  0.99900457    -0.03100
C1380       C  0.74245242  0.03447114  0.00665783    -0.05900
C1381       C  0.75524052  0.07840474  0.00096905    -0.16600
C1382       C  0.77715757  0.08157560  0.98673058     0.02300
C1383       C  0.80066996  0.95375832  0.97866551     0.12200
C1384       C  0.73905847  0.94605653  0.00568727     0.62900
H1385       H  0.72530185  0.03291881  0.01748937     0.12300
C1386       C  0.78947657  0.12852773  0.97979727     0.55000
H1387       H  0.80898001  0.04127725  0.96887256     0.08100
C1388       C  0.78121725  0.92943514  0.96628594    -0.05700
C1389       C  0.79964040  0.88508181  0.96262764    -0.06500
C1390       C  0.83545438  0.86467036  0.97129322    -0.16100
C1391       C  0.85829044  0.89158549  0.98249815    -0.01700
C1392       C  0.84083979  0.93622157  0.98580496    -0.09200
C1393       C  0.74037781  0.94949667  0.95741309     0.65100
H1394       H  0.78372713  0.86452908  0.95377043     0.10500
C1395       C  0.89947758  0.87263042  0.99149123     0.63500
H1396       H  0.85620117  0.95633708  0.99488529     0.07900
F1397       F  0.74884669  0.15381351  0.97726423    -0.19600
F1398       F  0.81241739  0.12353471  0.96621319    -0.15800
F1399       F  0.81848984  0.15343235  0.98934546    -0.19300
F1400       F  0.77837934  0.92096253  0.00991051    -0.22700
F1401       F  0.71386735  0.92053886  0.99523543    -0.24200
F1402       F  0.71113275  0.95145763  0.01825474    -0.18100
F1403       F  0.92332707  0.90805302  0.99888591    -0.20600
F1404       F  0.93096380  0.85053563  0.98207158    -0.21800
F1405       F  0.88351241  0.84120120  0.00211700    -0.19000
F1406       F  0.72667977  0.92009011  0.94586209    -0.19100
F1407       F  0.75329883  0.99189423  0.95118552    -0.22900
F1408       F  0.70224034  0.95629489  0.96672549    -0.24500
C1409       C  0.74096669  0.50426079  0.99762891    -0.11300
C1410       C  0.75735257  0.50060210  0.01240215     0.11300
C1411       C  0.78076206  0.53896808  0.01914366    -0.03100
C1412       C  0.78980833  0.57898888  0.01036734    -0.05900
C1413       C  0.77584139  0.58147584  0.99525454    -0.16600
C1414       C  0.74875114  0.54451156  0.98897971     0.02300
C1415       C  0.75148642  0.45470874  0.01994761     0.12200
C1416       C  0.79622391  0.53755099  0.03545032     0.62900
H1417       H  0.80940704  0.60796880  0.01510092     0.12300
C1418       C  0.72658141  0.54762785  0.97345628     0.55000
H1419       H  0.72278021  0.47456889  0.99277494     0.08100
C1420       C  0.70669115  0.43546351  0.02306380    -0.05700
C1421       C  0.70332768  0.38752643  0.02638141    -0.06500
C1422       C  0.74326884  0.35867558  0.02720844    -0.16100
C1423       C  0.78845358  0.37919065  0.02537815    -0.01700
C1424       C  0.79150553  0.42667049  0.02142681    -0.09200
C1425       C  0.66158236  0.46344166  0.02176878     0.65100
H1426       H  0.66878095  0.37214250  0.02777343     0.10500
C1427       C  0.83352010  0.35173638  0.02756469     0.63500
H1428       H  0.82530877  0.44165451  0.01859409     0.07900
F1429       F  0.69398215  0.51234613  0.97111768    -0.19600
F1430       F  0.76048764  0.54379010  0.96250480    -0.15800
F1431       F  0.70354573  0.58983516  0.97184632    -0.19300
F1432       F  0.83357776  0.50717335  0.03713577    -0.22700
F1433       F  0.75943165  0.52268226  0.04438486    -0.24200
F1434       F  0.81026624  0.58122895  0.04046687    -0.18100
F1435       F  0.84027038  0.32147046  0.01566869    -0.20600
F1436       F  0.83097213  0.32685658  0.04084068    -0.21800
F1437       F  0.87236070  0.38084348  0.02843799    -0.19000
F1438       F  0.62988492  0.44914912  0.03260769    -0.19100
F1439       F  0.64182797  0.45614227  0.00777044    -0.22900
F1440       F  0.66928300  0.51082575  0.02376682    -0.24500
C1441       C  0.74974910  0.67321663  0.86497142    -0.11300
C1442       C  0.77385363  0.71500944  0.86783579     0.11300
C1443       C  0.78441956  0.74557549  0.85578420    -0.03100
C1444       C  0.76757574  0.73441937  0.84128533    -0.05900
C1445       C  0.74309625  0.69255057  0.83841839    -0.16600
C1446       C  0.73439788  0.66109344  0.85047564     0.02300
C1447       C  0.78850685  0.72399677  0.88364952     0.12200
C1448       C  0.81485304  0.78859346  0.85813733     0.62900
H1449       H  0.77485842  0.75756119  0.83193802     0.12300
C1450       C  0.70854272  0.61507808  0.84823123     0.55000
H1451       H  0.74333801  0.64981994  0.87432219     0.08100
C1452       C  0.75621235  0.73961525  0.89461433    -0.05700
C1453       C  0.76963013  0.73864110  0.90984850    -0.06500
C1454       C  0.81419837  0.72291753  0.91445353    -0.16100
C1455       C  0.84747654  0.70975261  0.90331199    -0.01700
C1456       C  0.83365939  0.71022108  0.88809550    -0.09200
C1457       C  0.70744083  0.75642968  0.89023768     0.65100
H1458       H  0.74475355  0.74908501  0.91838405     0.10500
C1459       C  0.89648609  0.69278262  0.90734714     0.63500
H1460       H  0.85745036  0.69790475  0.87950530     0.07900
F1461       F  0.69873865  0.59313158  0.86172986    -0.19600
F1462       F  0.73595443  0.58505700  0.83984897    -0.15800
F1463       F  0.66633747  0.62286203  0.84093439    -0.19300
F1464       F  0.85965480  0.77489648  0.86222978    -0.22700
F1465       F  0.79639981  0.81637934  0.86933996    -0.24200
F1466       F  0.81817640  0.81533469  0.84521666    -0.18100
F1467       F  0.92171056  0.67931607  0.89481234    -0.20600
F1468       F  0.89343687  0.65455295  0.91680899    -0.21800
F1469       F  0.92132201  0.72827583  0.91432265    -0.19000
F1470       F  0.68251981  0.77246117  0.90251683    -0.19100
F1471       F  0.68214879  0.72032038  0.88380290    -0.22900
F1472       F  0.71096579  0.79274510  0.88004827    -0.24500
C1473       C  0.23114600  0.30048321  0.85724765    -0.11300
C1474       C  0.26536011  0.28010648  0.86648379     0.11300
C1475       C  0.30379747  0.25676503  0.85987401    -0.03100
C1476       C  0.30909968  0.25870500  0.84415945    -0.05900
C1477       C  0.27679572  0.28235495  0.83479466    -0.16600
C1478       C  0.23582508  0.30209115  0.84149002     0.02300
C1479       C  0.26085333  0.28595998  0.88305405     0.12200
C1480       C  0.33911259  0.23016773  0.86942391     0.62900
H1481       H  0.33934060  0.24218335  0.83910072     0.12300
C1482       C  0.19746866  0.32590170  0.83236106     0.55000
H1483       H  0.20130771  0.31675896  0.86264363     0.08100
C1484       C  0.27437147  0.32807780  0.89027224    -0.05700
C1485       C  0.26677855  0.33264315  0.90581539    -0.06500
C1486       C  0.24627572  0.29663394  0.91431012    -0.16100
C1487       C  0.23507158  0.25357010  0.90722289    -0.01700
C1488       C  0.24172535  0.24935616  0.89159418    -0.09200
C1489       C  0.29635047  0.36821807  0.88154364     0.65100
H1490       H  0.27555591  0.36513449  0.91141097     0.10500
C1491       C  0.21814261  0.21164855  0.91618862     0.63500
H1492       H  0.23176360  0.21743195  0.88587048     0.07900
F1493       F  0.21562156  0.36462411  0.82505905    -0.19600
F1494       F  0.16074587  0.34106752  0.84126974    -0.15800
F1495       F  0.17907354  0.29478195  0.82200519    -0.19300
F1496       F  0.31664935  0.19407112  0.87686046    -0.22700
F1497       F  0.35941247  0.25975542  0.87985717    -0.24200
F1498       F  0.37465471  0.21094312  0.86084793    -0.18100
F1499       F  0.17363266  0.21990909  0.92172225    -0.20600
F1500       F  0.24869875  0.20339033  0.92799928    -0.21800
F1501       F  0.21628724  0.17152823  0.90751239    -0.19000
F1502       F  0.30942288  0.40477375  0.89084749    -0.19100
F1503       F  0.26464486  0.38535021  0.87113788    -0.22900
F1504       F  0.33607062  0.35283682  0.87415506    -0.24500
C1505       C  0.45836358  0.45493203  0.81770212    -0.11300
C1506       C  0.48991111  0.46414015  0.80595973     0.11300
C1507       C  0.48437919  0.44054023  0.79208659    -0.03100
C1508       C  0.44799311  0.40756276  0.79059477    -0.05900
C1509       C  0.41631271  0.39830186  0.80227895    -0.16600
C1510       C  0.42056546  0.42330797  0.81595628     0.02300
C1511       C  0.52834709  0.49893114  0.80828698     0.12200
C1512       C  0.51644898  0.45047424  0.77883143     0.62900
H1513       H  0.44354942  0.38894630  0.78010894     0.12300
C1514       C  0.38570079  0.41655143  0.82863414     0.55000
H1515       H  0.46335949  0.47320848  0.82822140     0.08100
C1516       C  0.52040491  0.54769167  0.80731733    -0.05700
C1517       C  0.55941106  0.57808171  0.80732523    -0.06500
C1518       C  0.60583637  0.56136419  0.80800277    -0.16100
C1519       C  0.61335990  0.51268886  0.81033252    -0.01700
C1520       C  0.57419217  0.48240692  0.81055535    -0.09200
C1521       C  0.47103718  0.56734539  0.80580721     0.65100
H1522       H  0.55391990  0.61525198  0.80609464     0.10500
C1523       C  0.66208584  0.49245234  0.81276373     0.63500
H1524       H  0.57919842  0.44503414  0.81178463     0.07900
F1525       F  0.34176900  0.43162842  0.82408003    -0.19600
F1526       F  0.39821168  0.44184045  0.84127397    -0.15800
F1527       F  0.38334562  0.36978204  0.83257207    -0.19300
F1528       F  0.56198474  0.43770982  0.78229439    -0.22700
F1529       F  0.51535467  0.49763802  0.77537449    -0.24200
F1530       F  0.50295933  0.42587046  0.76615058    -0.18100
F1531       F  0.66016243  0.44651539  0.81769068    -0.20600
F1532       F  0.68571484  0.51820870  0.82352326    -0.21800
F1533       F  0.68708755  0.49324387  0.79949589    -0.19000
F1534       F  0.47109384  0.61560730  0.80469086    -0.19100
F1535       F  0.44480389  0.55542841  0.81826448    -0.22900
F1536       F  0.44958850  0.54949750  0.79310077    -0.24500
C1537       C  0.24317325  0.79323172  0.63866641    -0.11300
C1538       C  0.21460783  0.75812213  0.63245699     0.11300
C1539       C  0.18437356  0.73221890  0.64195993    -0.03100
C1540       C  0.18461231  0.74173179  0.65745697    -0.05900
C1541       C  0.21286326  0.77708915  0.66376487    -0.16600
C1542       C  0.24172293  0.80436265  0.65411061     0.02300
C1543       C  0.21664639  0.74901451  0.61595812     0.12200
C1544       C  0.15136035  0.69511262  0.63572604     0.62900
H1545       H  0.16216519  0.72156824  0.66483277     0.12300
C1546       C  0.26867893  0.84667871  0.65980468     0.55000
H1547       H  0.26612909  0.81249750  0.63120877     0.08100
C1548       C  0.19300140  0.77750716  0.60537637    -0.05700
C1549       C  0.19195636  0.76343319  0.59022594    -0.06500
C1550       C  0.21400762  0.72212032  0.58520180    -0.16100
C1551       C  0.24035583  0.69527406  0.59579016    -0.01700
C1552       C  0.24114665  0.70953011  0.61095887    -0.09200
C1553       C  0.16855244  0.82238239  0.61007992     0.65100
H1554       H  0.17282983  0.78456643  0.58219876     0.10500
C1555       C  0.26772841  0.65182275  0.59137556     0.63500
H1556       H  0.25991927  0.68903447  0.61925478     0.07900
F1557       F  0.28908564  0.87166034  0.64819429    -0.19600
F1558       F  0.30403005  0.83258644  0.66945425    -0.15800
F1559       F  0.23842089  0.87649144  0.66725885    -0.19300
F1560       F  0.17698892  0.65845899  0.62985693    -0.22700
F1561       F  0.12352223  0.71416503  0.62454695    -0.24200
F1562       F  0.12194792  0.67719897  0.64667632    -0.18100
F1563       F  0.29471799  0.63485185  0.60313007    -0.20600
F1564       F  0.29780527  0.66224136  0.57966567    -0.21800
F1565       F  0.23702539  0.61668788  0.58712126    -0.19000
F1566       F  0.14582853  0.84376891  0.59815173    -0.19100
F1567       F  0.20122373  0.85364482  0.61569547    -0.22900
F1568       F  0.13551282  0.81292144  0.62101700    -0.24500
C1569       C  0.92529530  0.74226032  0.78185063    -0.11300
C1570       C  0.94745261  0.72418644  0.76905616     0.11300
C1571       C  0.92813721  0.68464458  0.76171247    -0.03100
C1572       C  0.88451289  0.66738182  0.76654383    -0.05900
C1573       C  0.86113758  0.68651762  0.77894404    -0.16600
C1574       C  0.88256036  0.72335124  0.78715161     0.02300
C1575       C  0.99149919  0.74614123  0.76356606     0.12200
C1576       C  0.95387572  0.66038361  0.74896176     0.62900
H1577       H  0.86792004  0.63878574  0.76056196     0.12300
C1578       C  0.86025978  0.74278352  0.80128485     0.55000
H1579       H  0.94169701  0.77142857  0.78758530     0.08100
C1580       C  0.99132331  0.77898949  0.75165787    -0.05700
C1581       C  0.03387945  0.78888306  0.74433888    -0.06500
C1582       C  0.07632525  0.76909363  0.74918427    -0.16100
C1583       C  0.07729633  0.74143029  0.76237996    -0.01700
C1584       C  0.03438691  0.72982179  0.76928598    -0.09200
C1585       C  0.94646707  0.80336474  0.74678316     0.65100
H1586       H  0.03420523  0.81114638  0.73448619     0.10500
C1587       C  0.12307703  0.72274063  0.76873602     0.63500
H1588       H  0.03369182  0.70592771  0.77872711     0.07900
F1589       F  0.81510595  0.75790204  0.79831490    -0.19600
F1590       F  0.88547204  0.78019563  0.80702224    -0.15800
F1591       F  0.85871277  0.70819169  0.81213470    -0.19300
F1592       F  0.99697829  0.64458393  0.75403330    -0.22700
F1593       F  0.96090496  0.69094270  0.73715312    -0.24200
F1594       F  0.92904757  0.62224381  0.74356342    -0.18100
F1595       F  0.15249248  0.75969410  0.77225696    -0.20600
F1596       F  0.14484739  0.69435414  0.75833334    -0.21800
F1597       F  0.11597821  0.69678437  0.78166299    -0.19000
F1598       F  0.95447907  0.83526935  0.73535745    -0.19100
F1599       F  0.92809737  0.82733331  0.75885987    -0.22900
F1600       F  0.91373228  0.77120264  0.74177398    -0.24500
C1601       C  0.43750525  0.79113079  0.73091766    -0.11300
C1602       C  0.44603104  0.74565534  0.73612236     0.11300
C1603       C  0.41126842  0.71077087  0.73443584    -0.03100
C1604       C  0.36807815  0.72309933  0.72793726    -0.05900
C1605       C  0.35763984  0.76950511  0.72374592    -0.16600
C1606       C  0.39375318  0.80398215  0.72470099     0.02300
C1607       C  0.48973844  0.73629943  0.74467373     0.12200
C1608       C  0.41908937  0.66114732  0.74009328     0.62900
H1609       H  0.34091244  0.69673491  0.72690018     0.12300
C1610       C  0.38614243  0.85445410  0.71991326     0.55000
H1611       H  0.46488392  0.81705030  0.73244368     0.08100
C1612       C  0.53236895  0.72450437  0.73760751    -0.05700
C1613       C  0.57074871  0.71132558  0.74662240    -0.06500
C1614       C  0.56824910  0.71118412  0.76242444    -0.16100
C1615       C  0.52579665  0.72560836  0.76945653    -0.01700
C1616       C  0.48729940  0.73782226  0.76035089    -0.09200
C1617       C  0.53755119  0.72726458  0.72067585     0.65100
H1618       H  0.60345329  0.70154571  0.74131380     0.10500
C1619       C  0.52068133  0.72907935  0.78638569     0.63500
H1620       H  0.45426402  0.74799119  0.76538870     0.07900
F1621       F  0.37346709  0.85599839  0.70492386    -0.19600
F1622       F  0.42639540  0.88121479  0.72162145    -0.15800
F1623       F  0.35128568  0.87451342  0.72854814    -0.19300
F1624       F  0.42534200  0.66124656  0.75547556    -0.22700
F1625       F  0.45838662  0.64213253  0.73338916    -0.24200
F1626       F  0.38126097  0.63245683  0.73695270    -0.18100
F1627       F  0.55528626  0.75774794  0.79224196    -0.20600
F1628       F  0.52420645  0.68512526  0.79266201    -0.21800
F1629       F  0.47763815  0.74745132  0.79052960    -0.19000
F1630       F  0.58144530  0.71250332  0.71601377    -0.19100
F1631       F  0.53164193  0.77308408  0.71605931    -0.22900
F1632       F  0.50417094  0.69954707  0.71372551    -0.24500
C1633       C  0.18089167  0.55797829  0.72794044    -0.11300
C1634       C  0.22861891  0.54562010  0.72787004     0.11300
C1635       C  0.26159813  0.57611025  0.72106299    -0.03100
C1636       C  0.24679449  0.62119130  0.71671686    -0.05900
C1637       C  0.19993436  0.63534357  0.71835490    -0.16600
C1638       C  0.16589209  0.60257342  0.72316594     0.02300
C1639       C  0.24373929  0.50348191  0.73653122     0.12200
C1640       C  0.31225647  0.56138898  0.71877199     0.62900
H1641       H  0.27216754  0.64658670  0.71273214     0.12300
C1642       C  0.11422861  0.61533150  0.72350179     0.55000
H1643       H  0.15585189  0.53338513  0.73258899     0.08100
C1644       C  0.24807573  0.50482634  0.75236506    -0.05700
C1645       C  0.26282635  0.46431473  0.76000844    -0.06500
C1646       C  0.27360466  0.42241116  0.75245544    -0.16100
C1647       C  0.27083209  0.42176022  0.73647820    -0.01700
C1648       C  0.25505798  0.46222960  0.72886027    -0.09200
C1649       C  0.23652340  0.54879744  0.76122741     0.65100
H1650       H  0.26472013  0.46490786  0.77213710     0.10500
C1651       C  0.28537294  0.37938231  0.72733293     0.63500
H1652       H  0.25122232  0.46198055  0.71677223     0.07900
F1653       F  0.10671308  0.65128633  0.73355142    -0.19600
F1654       F  0.08649888  0.57773616  0.72770849    -0.15800
F1655       F  0.10021792  0.62964868  0.70934982    -0.19300
F1656       F  0.31373765  0.52279226  0.70945804    -0.22700
F1657       F  0.33268586  0.55008205  0.73239521    -0.24200
F1658       F  0.33856811  0.59648183  0.71212812    -0.18100
F1659       F  0.25303694  0.34371658  0.72913771    -0.20600
F1660       F  0.32930735  0.36425421  0.73189681    -0.21800
F1661       F  0.28792718  0.38960953  0.71216418    -0.19000
F1662       F  0.24746208  0.54402917  0.77630229    -0.19100
F1663       F  0.18904572  0.55828864  0.76010151    -0.22900
F1664       F  0.26175375  0.58641702  0.75570318    -0.24500
C1665       C  0.32104198  0.05486495  0.77622728    -0.11300
C1666       C  0.27589880  0.04428571  0.77083115     0.11300
C1667       C  0.24015474  0.07866709  0.77145649    -0.03100
C1668       C  0.25210022  0.12408561  0.77620829    -0.05900
C1669       C  0.29829899  0.13576738  0.78023678    -0.16600
C1670       C  0.33326620  0.10066922  0.78057257     0.02300
C1671       C  0.26886508  0.99973311  0.76250712     0.12200
C1672       C  0.19016623  0.06785179  0.76653741     0.62900
H1673       H  0.22598174  0.15162968  0.77601678     0.12300
C1674       C  0.38388258  0.11253398  0.78433751     0.55000
H1675       H  0.34760213  0.02780052  0.77581357     0.08100
C1676       C  0.28327568  0.99538769  0.74736746    -0.05700
C1677       C  0.27240039  0.95409693  0.73958201    -0.06500
C1678       C  0.24792010  0.91705187  0.74636708    -0.16100
C1679       C  0.23399417  0.92112329  0.76161523    -0.01700
C1680       C  0.24526091  0.96252017  0.76948196    -0.09200
C1681       C  0.30955587  0.03448838  0.73937031     0.65100
H1682       H  0.28309891  0.95035979  0.72799023     0.10500
C1683       C  0.20539122  0.88329122  0.76934118     0.63500
H1684       H  0.23485712  0.96668791  0.78108282     0.07900
F1685       F  0.40119957  0.14395173  0.77390311    -0.19600
F1686       F  0.41233106  0.07328865  0.78421004    -0.15800
F1687       F  0.38630579  0.13231109  0.79847108    -0.19300
F1688       F  0.17148739  0.03349114  0.77568722    -0.22700
F1689       F  0.18966392  0.05240215  0.75183674    -0.24200
F1690       F  0.16148325  0.10680548  0.76743873    -0.18100
F1691       F  0.23171605  0.84289618  0.77068532    -0.20600
F1692       F  0.16525942  0.87410958  0.76107051    -0.21800
F1693       F  0.19163738  0.89659393  0.78360281    -0.19000
F1694       F  0.31764816  0.02403096  0.72443346    -0.19100
F1695       F  0.35262496  0.04169456  0.74618571    -0.22900
F1696       F  0.28377382  0.07541263  0.73990311    -0.24500
C1697       C  0.79047570  0.29612561  0.61117146    -0.11300
C1698       C  0.79711871  0.24958997  0.61556178     0.11300
C1699       C  0.80424827  0.21491665  0.60449297    -0.03100
C1700       C  0.80623691  0.22850791  0.58929336    -0.05900
C1701       C  0.80114585  0.27551960  0.58475498    -0.16600
C1702       C  0.79287661  0.31016423  0.59601110     0.02300
C1703       C  0.79716987  0.23844033  0.63191730     0.12200
C1704       C  0.80967580  0.16372941  0.60876279     0.62900
H1705       H  0.81189146  0.20211420  0.58079122     0.12300
C1706       C  0.78768429  0.36196678  0.59239185     0.55000
H1707       H  0.78415156  0.32166055  0.61990145     0.08100
C1708       C  0.83722998  0.24629550  0.64105732    -0.05700
C1709       C  0.83538715  0.23344264  0.65630427    -0.06500
C1710       C  0.79503585  0.21321057  0.66264485    -0.16100
C1711       C  0.75435059  0.20717629  0.65365376    -0.01700
C1712       C  0.75611425  0.22017569  0.63838308    -0.09200
C1713       C  0.88183036  0.26783378  0.63470903     0.65100
H1714       H  0.86599078  0.23826746  0.66339074     0.10500
C1715       C  0.70899473  0.18844060  0.66025454     0.63500
H1716       H  0.72552235  0.21569971  0.63127404     0.07900
F1717       F  0.82710310  0.37781510  0.58487145    -0.19600
F1718       F  0.78290316  0.38892021  0.60520064    -0.15800
F1719       F  0.74804615  0.36901249  0.58366768    -0.19300
F1720       F  0.76873733  0.14780233  0.61534046    -0.22700
F1721       F  0.84642080  0.15846552  0.61879947    -0.24200
F1722       F  0.81877966  0.13592302  0.59640011    -0.18100
F1723       F  0.69670027  0.21467573  0.67267482    -0.20600
F1724       F  0.71474497  0.14225010  0.66447094    -0.21800
F1725       F  0.67229139  0.19055858  0.65005160    -0.19000
F1726       F  0.91717535  0.27059878  0.64537967    -0.19100
F1727       F  0.87277386  0.31265223  0.62964231    -0.22900
F1728       F  0.89814227  0.24110999  0.62290523    -0.24500
C1729       C  0.98640207  0.04436420  0.68506998    -0.11300
C1730       C  0.98659876  0.00668603  0.69516197     0.11300
C1731       C  0.94871932  0.00064260  0.70521570    -0.03100
C1732       C  0.91189825  0.03321020  0.70493087    -0.05900
C1733       C  0.91160214  0.07158568  0.69500396    -0.16600
C1734       C  0.94907680  0.07676168  0.68461073     0.02300
C1735       C  0.02716521  0.97412122  0.69524023     0.12200
C1736       C  0.94751867  0.96033520  0.71638898     0.62900
H1737       H  0.88349088  0.02958125  0.71290608     0.12300
C1738       C  0.94937558  0.11508521  0.67279387     0.55000
H1739       H  0.01603322  0.04826046  0.67757328     0.08100
C1740       C  0.03038569  0.93615327  0.68510742    -0.05700
C1741       C  0.06594264  0.90264723  0.68734151    -0.06500
C1742       C  0.09870020  0.90705973  0.69903125    -0.16100
C1743       C  0.09729806  0.94676358  0.70852616    -0.01700
C1744       C  0.06137764  0.97983853  0.70641951    -0.09200
C1745       C  0.99611654  0.93098163  0.67213748     0.65100
H1746       H  0.06805757  0.87226558  0.68011855     0.10500
C1747       C  0.13301026  0.95369291  0.72097047     0.63500
H1748       H  0.05872945  0.00983328  0.71379071     0.07900
F1749       F  0.98478313  0.10850165  0.66238407    -0.19600
F1750       F  0.95646950  0.15811448  0.67949810    -0.15800
F1751       F  0.90702396  0.11524916  0.66513249    -0.19300
F1752       F  0.98349743  0.96535040  0.72671087    -0.22700
F1753       F  0.95274169  0.91820089  0.70897746    -0.24200
F1754       F  0.90554913  0.95867018  0.72419477    -0.18100
F1755       F  0.12367121  0.99315249  0.72944910    -0.20600
F1756       F  0.17708498  0.95895431  0.71473160    -0.21800
F1757       F  0.13268421  0.91542481  0.73048504    -0.19000
F1758       F  0.00492829  0.89113682  0.66379531    -0.19100
F1759       F  0.99996616  0.96919077  0.66269166    -0.22900
F1760       F  0.95063978  0.92829839  0.67747528    -0.24500
C1761       C  0.76193509  0.99999435  0.76635892    -0.11300
C1762       C  0.74167174  0.96142634  0.75917936     0.11300
C1763       C  0.73282376  0.96323850  0.74355008    -0.03100
C1764       C  0.74544713  0.00384985  0.73558152    -0.05900
C1765       C  0.76720885  0.04239881  0.74261055    -0.16600
C1766       C  0.77623438  0.04009470  0.75836367    -0.02500
C1767       C  0.73360524  0.91801740  0.76803044     0.12200
C1768       C  0.71036781  0.92231228  0.73529412     0.62900
H1769       H  0.73843510  0.00555154  0.72365016     0.12300
C1770       C  0.80103643  0.07901944  0.76690039     0.55000
H1771       H  0.76749100  0.99775949  0.77836070     0.08100
C1772       C  0.77108030  0.88762577  0.77170209    -0.05700
C1773       C  0.76052116  0.84322730  0.77750123    -0.06500
C1774       C  0.71408785  0.82838811  0.77992827    -0.16100
C1775       C  0.67678186  0.86070990  0.77763964    -0.01700
C1776       C  0.68748657  0.90536823  0.77179490    -0.09200
C1777       C  0.82202302  0.90135300  0.76913463     0.65100
H1778       H  0.78873182  0.81877617  0.77959140     0.10500
C1779       C  0.62586515  0.84769445  0.78046976     0.63500
H1780       H  0.65966812  0.93008254  0.76938684     0.07900
F1781       F  0.84577828  0.08530405  0.76120097    -0.19600
F1782       F  0.80565422  0.06883845  0.78202860    -0.15800
F1783       F  0.77573565  0.12013194  0.76567845    -0.19300
F1784       F  0.66506545  0.91547471  0.74040122    -0.22700
F1785       F  0.73621490  0.88204383  0.73769822    -0.24200
F1786       F  0.70809002  0.92998328  0.71996425    -0.18100
F1787       F  0.59558446  0.88422135  0.77721670    -0.20600
F1788       F  0.61997733  0.83607892  0.79541656    -0.21800
F1789       F  0.61335185  0.81019541  0.77152781    -0.19000
F1790       F  0.85244590  0.86524749  0.77264834    -0.19100
F1791       F  0.83356303  0.93896118  0.77815565    -0.22900
F1792       F  0.82891815  0.91332701  0.75426077    -0.24500
C1793       C  0.79488933  0.39622351  0.74115957    -0.11300
C1794       C  0.75705669  0.41687078  0.73358208     0.11300
C1795       C  0.73716397  0.39420274  0.72094386    -0.03100
C1796       C  0.75342247  0.34910353  0.71714987    -0.05900
C1797       C  0.78973940  0.32746766  0.72528491    -0.16600
C1798       C  0.81126314  0.35154850  0.73733574     0.02300
C1799       C  0.73985180  0.46222053  0.73952431     0.12200
C1800       C  0.69971478  0.41779788  0.71145130     0.62900
H1801       H  0.73738256  0.32999476  0.70797482     0.12300
C1802       C  0.84888949  0.32859092  0.74682040     0.55000
H1803       H  0.81011453  0.41473245  0.75060204     0.08100
C1804       C  0.70969478  0.46436723  0.75214550    -0.05700
C1805       C  0.70258509  0.50784176  0.75917987    -0.06500
C1806       C  0.72552694  0.54849985  0.75427223    -0.16100
C1807       C  0.75449559  0.54659159  0.74133194    -0.01700
C1808       C  0.76089591  0.50327264  0.73416175    -0.09200
C1809       C  0.68710155  0.42061209  0.75865023     0.65100
H1810       H  0.68093694  0.51002463  0.76913553     0.10500
C1811       C  0.78173918  0.58782679  0.73501970     0.63500
H1812       H  0.78472720  0.50098055  0.72471104     0.07900
F1813       F  0.82965167  0.29017766  0.75396382    -0.19600
F1814       F  0.86656499  0.35852220  0.75766755    -0.15800
F1815       F  0.88578061  0.31460659  0.73782124    -0.19300
F1816       F  0.71750410  0.45884288  0.70551371    -0.22700
F1817       F  0.66084809  0.42816083  0.72006475    -0.24200
F1818       F  0.68527089  0.38965310  0.69966703    -0.18100
F1819       F  0.82934417  0.57903579  0.73635998    -0.20600
F1820       F  0.77213537  0.62959986  0.74209678    -0.21800
F1821       F  0.77081062  0.59309215  0.71997591    -0.19000
F1822       F  0.65785198  0.43091113  0.77058009    -0.19100
F1823       F  0.72137031  0.39026011  0.76374746    -0.22900
F1824       F  0.66053938  0.39839031  0.74780883    -0.24500
C1825       C  0.07858758  0.29302324  0.76106521    -0.11300
C1826       C  0.06178901  0.24966485  0.76617407     0.11300
C1827       C  0.08991406  0.22232013  0.77594854    -0.03100
C1828       C  0.13548378  0.23810836  0.77948325    -0.05900
C1829       C  0.15290509  0.28068227  0.77392351    -0.16600
C1830       C  0.12354050  0.30957209  0.76502309     0.02300
C1831       C  0.01718859  0.23160328  0.75963053     0.12200
C1832       C  0.07200449  0.17658016  0.78250624     0.62900
H1833       H  0.15850913  0.21665321  0.78630974     0.12300
C1834       C  0.14047730  0.35641720  0.75907717     0.55000
H1835       H  0.05677136  0.31302015  0.75343497     0.08100
C1836       C  0.97256453  0.24834175  0.76398593    -0.05700
C1837       C  0.93248093  0.23152763  0.75641033    -0.06500
C1838       C  0.93579214  0.20116793  0.74402698    -0.16100
C1839       C  0.98059996  0.18258812  0.74020996    -0.01700
C1840       C  0.02047895  0.19866541  0.74803580    -0.09200
C1841       C  0.96733726  0.28535835  0.77608916     0.65100
H1842       H  0.89842205  0.24418099  0.75962841     0.10500
C1843       C  0.98710187  0.14590970  0.72803210     0.63500
H1844       H  0.05508911  0.18667878  0.74482324     0.07900
F1845       F  0.10653155  0.37857694  0.75048987    -0.19600
F1846       F  0.17963487  0.34993074  0.75021254    -0.15800
F1847       F  0.15182914  0.38554267  0.77092755    -0.19300
F1848       F  0.06413009  0.14439079  0.77122211    -0.22700
F1849       F  0.03043808  0.18433650  0.79008187    -0.24200
F1850       F  0.10379192  0.15728536  0.79253308    -0.18100
F1851       F  0.98305501  0.16639075  0.71402289    -0.20600
F1852       F  0.95376701  0.11095316  0.72955081    -0.21800
F1853       F  0.03091611  0.12505046  0.72890125    -0.19000
F1854       F  0.92067331  0.29367116  0.77950415    -0.19100
F1855       F  0.98689049  0.32698522  0.77124248    -0.22900
F1856       F  0.98981775  0.27121256  0.78908218    -0.24500
C1857       C  0.52193379  0.23637830  0.75070985    -0.11300
C1858       C  0.51579751  0.22878161  0.73532887     0.11300
C1859       C  0.47096759  0.23479022  0.72876823    -0.03100
C1860       C  0.43310267  0.24796781  0.73803692    -0.05900
C1861       C  0.43895382  0.25494748  0.75357831    -0.16600
C1862       C  0.48456498  0.24981719  0.76000085     0.02300
C1863       C  0.55829851  0.21650624  0.72656172     0.12200
C1864       C  0.46365244  0.22767456  0.71206662     0.62900
H1865       H  0.39832081  0.25182538  0.73324441     0.12300
C1866       C  0.49485514  0.26010177  0.77642316     0.55000
H1867       H  0.55683446  0.23184762  0.75536840     0.08100
C1868       C  0.59457670  0.24967308  0.72403396    -0.05700
C1869       C  0.63882648  0.23368512  0.71947229    -0.06500
C1870       C  0.64773924  0.18610157  0.71724102    -0.16100
C1871       C  0.61115469  0.15308694  0.71894279    -0.01700
C1872       C  0.56661692  0.16895081  0.72354991    -0.09200
C1873       C  0.58976520  0.30169371  0.72705901     0.65100
H1874       H  0.66752691  0.25849434  0.71838742     0.10500
C1875       C  0.62028320  0.10123903  0.71681771     0.63500
H1876       H  0.53897034  0.14394606  0.72590631     0.07900
F1877       F  0.54261218  0.26066366  0.77943071    -0.19600
F1878       F  0.47474877  0.22631465  0.78547924    -0.15800
F1879       F  0.47735538  0.30358722  0.78010712    -0.19300
F1880       F  0.47314539  0.18171939  0.70833617    -0.22700
F1881       F  0.49348578  0.25681942  0.70414404    -0.24200
F1882       F  0.41799210  0.23754081  0.70773621    -0.18100
F1883       F  0.65202296  0.08581705  0.72750806    -0.20600
F1884       F  0.63867134  0.09351877  0.70268424    -0.21800
F1885       F  0.57955984  0.07505598  0.71817557    -0.19000
F1886       F  0.60677302  0.32664958  0.71491614    -0.19100
F1887       F  0.61605335  0.31300460  0.73961341    -0.22900
F1888       F  0.54387443  0.31555051  0.72938886    -0.24500
loop_ 
_geom_bond_atom_site_label_1 
_geom_bond_atom_site_label_2 
_geom_bond_distance 
_geom_bond_site_symmetry_2 
_ccdc_geom_bond_type 
O1          Cr19   1.967       .  S
O1            C9   1.263       .  A
O2          Cr19   2.018       .  S
O2            C3   1.268       .  A
C3            O4   1.257       .  A
C3         C1765   1.498       .  S
O4          Cr20   1.976       .  S
O5          Cr20   2.018       .  S
O5            C6   1.266       .  A
C6            O7   1.253       .  A
C6         C1838   1.495       .  S
O7          Cr21   1.967       .  S
O8          Cr21   2.020       .  S
O8            C9   1.270       .  A
C9         C1733   1.490       .  S
O10         Cr19   2.017       .  S
O10          C18   1.265       .  A
O11         Cr19   1.984       .  S
O11          C12   1.264       .  A
C12          O13   1.267       .  A
C12        C1870   1.468       .  S
O13         Cr20   2.005       .  S
O14         Cr20   1.964       .  S
O14          C15   1.257       .  A
C15          O16   1.271       .  A
C15        C1797   1.477       .  S
O16         Cr21   2.028       .  S
O17         Cr21   1.974       .  S
O17          C18   1.257       .  A
C18        C1710   1.485       .  S
Cr19         O22   1.774       .  S
Cr20         O22   1.767       .  S
Cr21         O22   1.770       .  S
O23         Cr41   2.019       .  S
O23          C31   1.270       .  A
O24         Cr41   1.969       .  S
O24          C25   1.258       .  A
C25          O26   1.261       .  A
C25        C1678   1.486       .  S
O26         Cr42   2.005       .  S
O27         Cr42   1.980       .  S
O27          C28   1.257       .  A
C28          O29   1.263       .  A
C28        C1582   1.474       .  S
O29         Cr43   2.003       .  S
O30         Cr43   1.975       .  S
O30          C31   1.263       .  A
C31        C1742   1.476       .  S
O32         Cr41   1.993       .  S
O32          C40   1.260       .  A
O33         Cr41   2.018       .  S
O33          C34   1.267       .  A
C34          O35   1.259       .  A
C34        C1605   1.493       .  S
O35         Cr42   1.960       .  S
O36         Cr42   2.005       .  S
O36          C37   1.266       .  A
C37          O38   1.265       .  A
C37        C1637   1.477       .  S
O38         Cr43   1.996       .  S
O39         Cr43   2.000       .  S
O39          C40   1.262       .  A
C40        C1541   1.495       .  S
Cr41         O44   1.779       .  S
Cr42         O44   1.777       .  S
Cr43         O44   1.776       .  S
O45         Cr63   2.022       .  S
O45          C53   1.269       .  A
O46         Cr63   1.978       .  S
O46          C47   1.260       .  A
C47          O48   1.264       .  A
C47        C1646   1.500       .  S
O48         Cr64   2.013       .  S
O49         Cr64   1.994       .  S
O49          C50   1.264       .  A
C50          O51   1.262       .  A
C50        C1861   1.490       .  S
O51         Cr65   2.002       .  S
O52         Cr65   1.972       .  S
O52          C53   1.262       .  A
C53        C1509   1.486       .  S
O54         Cr63   1.984       .  S
O54          C62   1.257       .  A
O55         Cr63   2.020       .  S
O55          C56   1.268       .  A
C56          O57   1.259       .  A
C56        C1829   1.478       .  S
O57         Cr64   1.970       .  S
O58         Cr64   2.003       .  S
O58          C59   1.266       .  A
C59          O60   1.265       .  A
C59        C1669   1.474       .  S
O60         Cr65   1.991       .  S
O61         Cr65   2.011       .  S
O61          C62   1.264       .  A
C62        C1477   1.505       .  S
Cr63         O66   1.774       .  S
Cr64         O66   1.772       .  S
Cr65         O66   1.772       .  S
O67         Cr85   1.979       .  S
O67          C75   1.263       .  A
O68         Cr85   2.014       .  S
O68          C69   1.266       .  A
C69          O70   1.260       .  A
C69        C1806   1.475       .  S
O70         Cr86   1.983       .  S
O71         Cr86   1.998       .  S
O71          C72   1.263       .  A
C72          O73   1.258       .  A
C72        C1614   1.491       .  S
O73         Cr87   1.981       .  S
O74         Cr87   2.023       .  S
O74          C75   1.273       .  A
C75        C1518   1.495       .  S
O76         Cr85   2.004       .  S
O76          C84   1.262       .  A
O77         Cr85   1.996       .  S
O77          C78   1.264       .  A
C78          O79   1.265       .  A
C78        C1573   1.481       .  S
O79         Cr86   2.002       .  S
O80         Cr86   1.961       .  S
O80          C81   1.260       .  A
C81          O82   1.269       .  A
C81        C1774   1.488       .  S
O82         Cr87   2.024       .  S
O83         Cr87   1.993       .  S
O83          C84   1.260       .  A
C84        C1445   1.490       .  S
Cr85         O88   1.772       .  S
Cr86         O88   1.768       .  S
Cr87         O88   1.772       .  S
O89        Cr107   1.973       .  S
O89          C97   1.261       .  A
O90        Cr107   2.008       .  S
O90          C91   1.267       .  A
C91          O92   1.259       .  A
C91        C1381   1.478       .  S
O92        Cr108   1.978       .  S
O93        Cr108   2.017       .  S
O93          C94   1.265       .  A
C94          O95   1.260       .  A
C94        C1317   1.501       .  S
O95        Cr109   1.973       .  S
O96        Cr109   2.019       .  S
O96          C97   1.268       .  A
C97        C1294   1.494       .  S
O98        Cr107   2.016       .  S
O98         C106   1.264       .  A
O99        Cr107   1.995       .  S
O99         C100   1.263       .  A
C100        O101   1.268       .  A
C100       C1358   1.483       .  S
O101       Cr108   2.018       .  S
O102       Cr108   1.969       .  S
O102        C103   1.259       .  A
C103        O104   1.269       .  A
C103       C1422   1.489       .  S
O104       Cr109   2.014       .  S
O105       Cr109   1.977       .  S
O105        C106   1.259       .  A
C106       C1253   1.498       .  S
Cr107       O110   1.770       .  S
Cr108       O110   1.772       .  S
Cr109       O110   1.770       .  S
O111       Cr129   1.974       .  S
O111        C119   1.260       .  A
O112       Cr129   2.011       .  S
O112        C113   1.269       .  A
C113        O114   1.259       .  A
C113       C1230   1.495       .  S
O114       Cr130   1.973       .  S
O115       Cr130   2.011       .  S
O115        C116   1.261       .  A
C116        O117   1.257       .  A
C116       C1157   1.500       .  S
O117       Cr131   1.972       .  S
O118       Cr131   2.019       .  S
O118        C119   1.271       .  A
C119       C1285   1.494       .  S
O120       Cr129   2.017       .  S
O120        C128   1.266       .  A
O121       Cr129   1.998       .  S
O121        C122   1.265       .  A
C122        O123   1.264       .  A
C122       C1125   1.478       .  S
O123       Cr130   2.002       .  S
O124       Cr130   1.949       .  S
O124        C125   1.258       .  A
C125        O126   1.270       .  A
C125       C1189   1.486       .  S
O126       Cr131   2.024       .  S
O127       Cr131   1.972       .  S
O127        C128   1.255       .  A
C128       C1102   1.493       .  S
Cr129       O132   1.769       .  S
Cr130       O132   1.765       .  S
Cr131       O132   1.768       .  S
O133       Cr151   2.030       .  S
O133        C141   1.274       .  A
O134       Cr151   1.959       .  S
O134        C135   1.253       .  A
C135        O136   1.263       .  A
C135       C1413   1.479       .  S
O136       Cr152   2.011       .  S
O137       Cr152   1.989       .  S
O137        C138   1.262       .  A
C138        O139   1.266       .  A
C138       C1134   1.481   1_556  S
O139       Cr153   2.010       .  S
O140       Cr153   1.967       .  S
O140        C141   1.260       .  A
C141       C1061   1.483       .  S
O142       Cr151   1.982       .  S
O142        C150   1.258       .  A
O143       Cr151   2.022       .  S
O143        C144   1.270       .  A
C144        O145   1.259       .  A
C144       C1166   1.482       .  S
O145       Cr152   1.969       .  S
O146       Cr152   2.000       .  S
O146        C147   1.264       .  A
C147        O148   1.264       .  A
C147       C1390   1.477       .  S
O148       Cr153   1.993       .  S
O149       Cr153   2.010       .  S
O149        C150   1.261       .  A
C150       C1454   1.495       .  S
Cr151       O154   1.774       .  S
Cr152       O154   1.776       .  S
Cr153       O154   1.776       .  S
O155       Cr173   2.011       .  S
O155        C163   1.266       .  A
O156       Cr173   1.974       .  S
O156        C157   1.259       .  A
C157        O158   1.261       .  A
C157       C1198   1.484       .  S
O158       Cr174   2.003       .  S
O159       Cr174   1.988       .  S
O159        C160   1.262       .  A
C160        O161   1.267       .  A
C160       C1349   1.481       .  S
O161       Cr175   2.013       .  S
O162       Cr175   1.973       .  S
O162        C163   1.260       .  A
C163       C1070   1.473       .  S
O164       Cr173   1.983       .  S
O164        C172   1.260       .  A
O165       Cr173   2.018       .  S
O165        C166   1.267       .  A
C166        O167   1.259       .  A
C166       C1326   1.474       .  S
O167       Cr174   1.975       .  S
O168       Cr174   1.988       .  S
O168        C169   1.262       .  A
C169        O170   1.262       .  A
C169       C1221   1.469       .  S
O170       Cr175   1.988       .  S
O171       Cr175   2.010       .  S
O171        C172   1.264       .  A
C172       C1486   1.487       .  S
Cr173       O176   1.777       .  S
Cr174       O176   1.772       .  S
Cr175       O176   1.775       .  S
O177       Cr195   1.976       .  S
O177        C185   1.263       .  A
O178       Cr195   2.002       .  S
O178        C179   1.264       .  A
C179        O180   1.264       .  A
C179       C1038   1.485       .  S
O180       Cr196   1.988       .  S
O181       Cr196   2.004       .  S
O181        C182   1.260       .  A
C182        O183   1.260       .  A
C182        C933   1.505       .  S
O183       Cr197   1.984       .  S
O184       Cr197   2.013       .  S
O184        C185   1.270       .  A
C185        C910   1.483       .  S
O186       Cr195   2.000       .  S
O186        C194   1.259       .  A
O187       Cr195   2.008       .  S
O187        C188   1.266       .  A
C188        O189   1.263       .  A
C188        C965   1.494       .  S
O189       Cr196   1.985       .  S
O190       Cr196   1.961       .  S
O190        C191   1.257       .  A
C191        O192   1.268       .  A
C191       C1006   1.467       .  S
O192       Cr197   2.014       .  S
O193       Cr197   1.988       .  S
O193        C194   1.260       .  A
C194       C1701   1.503       .  S
Cr195       O198   1.769       .  S
Cr196       O198   1.768       .  S
Cr197       O198   1.773       .  S
O199       Cr217   1.960       .  S
O199        C207   1.259       .  A
O200       Cr217   2.004       .  S
O200        C201   1.266       .  A
C201        O202   1.261       .  A
C201        C997   1.465       .  S
O202       Cr218   1.975       .  S
O203       Cr218   2.001       .  S
O203        C204   1.259       .  A
C204        O205   1.258       .  A
C204        C837   1.495       .  S
O205       Cr219   1.976       .  S
O206       Cr219   2.042       .  S
O206        C207   1.276       .  A
C207        C814   1.492       .  S
O208       Cr217   1.995       .  S
O208        C216   1.259       .  A
O209       Cr217   1.993       .  S
O209        C210   1.261       .  A
C210        O211   1.262       .  A
C210        C869   1.476       .  S
O211       Cr218   1.993       .  S
O212       Cr218   1.950       .  S
O212        C213   1.252       .  A
C213        O214   1.275       .  A
C213       C1029   1.497       .  S
O214       Cr219   2.039       .  S
O215       Cr219   1.990       .  S
O215        C216   1.258       .  A
C216        C773   1.476       .  S
Cr217       O220   1.769       .  S
Cr218       O220   1.767       .  S
Cr219       O220   1.771       .  S
O221       Cr239   2.016       .  S
O221        C229   1.270       .  A
O222       Cr239   1.985       .  S
O222        C223   1.256       .  A
C223        O224   1.255       .  A
C223        C741   1.470       .  S
O224       Cr240   1.983       .  S
O225       Cr240   1.987       .  S
O225        C226   1.266       .  A
C226        O227   1.268       .  A
C226        C974   1.488       .  S
O227       Cr241   2.009       .  S
O228       Cr241   1.990       .  S
O228        C229   1.264       .  A
C229        C805   1.503       .  S
O230       Cr239   1.978       .  S
O230        C238   1.259       .  A
O231       Cr239   2.036       .  S
O231        C232   1.273       .  A
C232        O233   1.257       .  A
C232        C942   1.481       .  S
O233       Cr240   1.961       .  S
O234       Cr240   1.977       .  S
O234        C235   1.252       .  A
C235        O236   1.267       .  A
C235        C718   1.494       .  S
O236       Cr241   2.018       .  S
O237       Cr241   2.003       .  S
O237        C238   1.262       .  A
C238        C677   1.482       .  S
Cr239       O242   1.776       .  S
Cr240       O242   1.770       .  S
Cr241       O242   1.770       .  S
O243       Cr261   1.970       .  S
O243        C251   1.263       .  A
O244       Cr261   2.025       .  S
O244        C245   1.269       .  A
C245        O246   1.257       .  A
C245        C709   1.482       .  S
O246       Cr262   1.969       .  S
O247       Cr262   2.001       .  S
O247        C248   1.261       .  A
C248        O249   1.261       .  A
C248        C878   1.494       .  S
O249       Cr263   1.982       .  S
O250       Cr263   2.021       .  S
O250        C251   1.270       .  A
C251        C901   1.502       .  S
O252       Cr261   2.020       .  S
O252        C260   1.265       .  A
O253       Cr261   1.989       .  S
O253        C254   1.262       .  A
C254        O255   1.265       .  A
C254        C846   1.473       .  S
O255       Cr262   2.001       .  S
O256       Cr262   1.938       .  S
O256        C257   1.253       .  A
C257        O258   1.268       .  A
C257        C750   1.471       .  S
O258       Cr263   2.026       .  S
O259       Cr263   1.979       .  S
O259        C260   1.259       .  A
C260       C1550   1.505       .  S
Cr261       O264   1.771       .  S
Cr262       O264   1.763       .  S
Cr263       O264   1.772       .  S
O265       Cr283   2.029       .  S
O265        C273   1.274       .  A
O266       Cr283   1.962       .  S
O266        C267   1.255       .  A
C267        O268   1.261       .  A
C267        C622   1.501       .  S
O268       Cr284   2.011       .  S
O269       Cr284   1.987       .  S
O269        C270   1.261       .  A
C270        O271   1.263       .  A
C270        C558   1.483       .  S
O271       Cr285   2.006       .  S
O272       Cr285   1.980       .  S
O272        C273   1.266       .  A
C273        C517   1.501       .  S
O274       Cr283   1.982       .  S
O274        C282   1.255       .  A
O275       Cr283   2.019       .  S
O275        C276   1.269       .  A
C276        O277   1.260       .  A
C276        C581   1.488       .  S
O277       Cr284   1.965       .  S
O278       Cr284   2.007       .  S
O278        C279   1.267       .  A
C279        O280   1.267       .  A
C279        C645   1.486       .  S
O280       Cr285   2.003       .  S
O281       Cr285   2.006       .  S
O281        C282   1.258       .  A
C282        C782   1.484       .  S
Cr283       O286   1.773       .  S
Cr284       O286   1.779       .  S
Cr285       O286   1.778       .  S
O287       Cr305   2.021       .  S
O287        C295   1.272       .  A
O288       Cr305   1.990       .  S
O288        C289   1.263       .  A
C289        O290   1.257       .  A
C289        C462   1.500       .  S
O290       Cr306   1.988       .  S
O291       Cr306   1.991       .  S
O291        C292   1.260       .  A
C292        O293   1.264       .  A
C292        C590   1.479       .  S
O293       Cr307   2.005       .  S
O294       Cr307   1.969       .  S
O294        C295   1.263       .  A
C295        C430   1.479       .  S
O296       Cr305   1.998       .  S
O296        C304   1.262       .  A
O297       Cr305   2.023       .  S
O297        C298   1.269       .  A
C298        O299   1.259       .  A
C298        C549   1.487       .  S
O299       Cr306   1.962       .  S
O300       Cr306   1.989       .  S
O300        C301   1.264       .  A
C301        O302   1.262       .  A
C301        C485   1.479       .  S
O302       Cr307   1.990       .  S
O303       Cr307   1.991       .  S
O303        C304   1.257       .  A
C304       C1093   1.501       .  S
Cr305       O308   1.773       .  S
Cr306       O308   1.768       .  S
Cr307       O308   1.769       .  S
O309       Cr327   2.011       .  S
O309        C317   1.265       .  A
O310       Cr327   1.972       .  S
O310        C311   1.257       .  A
C311        O312   1.260       .  A
C311        C494   1.463       .  S
O312       Cr328   1.998       .  S
O313       Cr328   1.975       .  S
O313        C314   1.261       .  A
C314        O315   1.269       .  A
C314        C366   1.474       .  S
O315       Cr329   2.011       .  S
O316       Cr329   1.983       .  S
O316        C317   1.261       .  A
C317        C526   1.479       .  S
O318       Cr327   1.968       .  S
O318        C326   1.254       .  A
O319       Cr327   2.007       .  S
O319        C320   1.267       .  A
C320        O321   1.260       .  A
C320        C389   1.479       .  S
O321       Cr328   1.969       .  S
O322       Cr328   1.993       .  S
O322        C323   1.261       .  A
C323        O324   1.265       .  A
C323        C453   1.480       .  S
O324       Cr329   2.006       .  S
O325       Cr329   2.019       .  S
O325        C326   1.269       .  A
C326        C686   1.502       .  S
Cr327       O330   1.772       .  S
Cr328       O330   1.773       .  S
Cr329       O330   1.768       .  S
O331       Cr349   1.971       .  S
O331        C339   1.263       .  A
O332       Cr349   2.015       .  S
O332        C333   1.267       .  A
C333        O334   1.261       .  A
C333        C654   1.486       .  S
O334       Cr350   1.987       .  S
O335       Cr350   2.006       .  S
O335        C336   1.262       .  A
C336        O337   1.257       .  A
C336        C398   1.488       .  S
O337       Cr351   1.964       .  S
O338       Cr351   2.024       .  S
O338        C339   1.269       .  A
C339        C421   1.498       .  S
O340       Cr349   2.009       .  S
O340        C348   1.263       .  A
O341       Cr349   1.984       .  S
O341        C342   1.261       .  A
C342        O343   1.265       .  A
C342        C357   1.469       .  S
O343       Cr350   2.000       .  S
O344       Cr350   1.969       .  S
O344        C345   1.260       .  A
C345        O346   1.269       .  A
C345        C613   1.488       .  S
O346       Cr351   2.028       .  S
O347       Cr351   1.987       .  S
O347        C348   1.262       .  A
C348       C1262   1.496       .  S
Cr349       O352   1.767       .  S
Cr350       O352   1.774       .  S
Cr351       O352   1.771       .  S
C353        C354   1.403       .  A
C353        C358   1.403       .  A
C353        H363   1.083       .  S
C354        C359   1.482   1_655  S
C354        C355   1.417       .  A
C355        C356   1.408       .  A
C355        C360   1.518       .  S
C356        C357   1.402       .  A
C356        H361   1.084       .  S
C357        C358   1.413       .  A
C358        C362   1.519       .  S
C359        C364   1.416       .  A
C359        C368   1.403       .  A
C360        F376   1.382       .  S
C360        F377   1.382       .  S
C360        F378   1.384       .  S
C362        F373   1.384       .  S
C362        F374   1.382       .  S
C362        F375   1.384       .  S
C364        C365   1.408       .  A
C364        C369   1.519       .  S
C365        C366   1.404       .  A
C365        H370   1.083       .  S
C366        C367   1.413       .  A
C367        C368   1.404       .  A
C367        C371   1.517       .  S
C368        H372   1.084   1_455  S
C369        F382   1.384       .  S
C369        F383   1.382       .  S
C369        F384   1.382       .  S
C371        F379   1.381       .  S
C371        F380   1.383       .  S
C371        F381   1.384   1_455  S
C385        C386   1.398       .  A
C385        C390   1.402       .  A
C385        H395   1.084       .  S
C386        C391   1.474       .  S
C386        C387   1.412       .  A
C387        C388   1.404       .  A
C387        C392   1.519       .  S
C388        C389   1.407       .  A
C388        H393   1.083       .  S
C389        C390   1.420       .  A
C390        C394   1.516       .  S
C391        C396   1.412       .  A
C391        C400   1.399       .  A
C392        F408   1.383       .  S
C392        F409   1.382       .  S
C392        F410   1.385       .  S
C394        F405   1.382       .  S
C394        F406   1.385       .  S
C394        F407   1.383       .  S
C396        C397   1.398       .  A
C396        C401   1.524       .  S
C397        C398   1.408       .  A
C397        H402   1.081       .  S
C398        C399   1.425       .  A
C399        C400   1.409       .  A
C399        C403   1.519       .  S
C400        H404   1.083       .  S
C401        F414   1.385       .  S
C401        F415   1.382       .  S
C401        F416   1.381       .  S
C403        F411   1.385       .  S
C403        F412   1.383       .  S
C403        F413   1.383       .  S
C417        C418   1.399       .  A
C417        C422   1.409       .  A
C417        H427   1.083       .  S
C418        C423   1.484       .  S
C418        C419   1.413       .  A
C419        C420   1.405       .  A
C419        C424   1.520       .  S
C420        C421   1.410       .  A
C420        H425   1.082       .  S
C421        C422   1.427       .  A
C422        C426   1.518       .  S
C423        C428   1.416       .  A
C423        C432   1.400       .  A
C424        F440   1.382       .  S
C424        F441   1.382       .  S
C424        F442   1.385       .  S
C426        F437   1.383       .  S
C426        F438   1.385       .  S
C426        F439   1.379       .  S
C428        C429   1.411       .  A
C428        C433   1.518       .  S
C429        C430   1.406       .  A
C429        H434   1.083       .  S
C430        C431   1.417       .  A
C431        C432   1.402       .  A
C431        C435   1.518       .  S
C432        H436   1.084       .  S
C433        F446   1.385       .  S
C433        F447   1.382       .  S
C433        F448   1.382       .  S
C435        F443   1.385       .  S
C435        F444   1.384       .  S
C435        F445   1.381       .  S
C449        C450   1.398       .  A
C449        C454   1.401       .  A
C449        H459   1.085       .  S
C450        C455   1.486       .  S
C450        C451   1.417       .  A
C451        C452   1.413       .  A
C451        C456   1.517       .  S
C452        C453   1.404       .  A
C452        H457   1.082       .  S
C453        C454   1.419       .  A
C454        C458   1.516       .  S
C455        C460   1.415       .  A
C455        C464   1.397       .  A
C456        F472   1.382       .  S
C456        F473   1.382       .  S
C456        F474   1.384       .  S
C458        F469   1.384       .  S
C458        F470   1.382       .  S
C458        F471   1.382       .  S
C460        C461   1.407       .  A
C460        C465   1.520       .  S
C461        C462   1.409       .  A
C461        H466   1.082       .  S
C462        C463   1.432       .  A
C463        C464   1.409       .  A
C463        C467   1.524       .  S
C464        H468   1.083       .  S
C465        F478   1.385       .  S
C465        F479   1.382       .  S
C465        F480   1.382       .  S
C467        F475   1.385       .  S
C467        F476   1.382       .  S
C467        F477   1.383       .  S
C481        C482   1.404       .  A
C481        C486   1.410       .  A
C481        H491   1.083       .  S
C482        C487   1.477       .  S
C482        C483   1.413       .  A
C483        C484   1.397       .  A
C483        C488   1.523       .  S
C484        C485   1.406       .  A
C484        H489   1.083       .  S
C485        C486   1.418       .  A
C486        C490   1.517       .  S
C487        C492   1.417   1_565  A
C487        C496   1.403   1_565  A
C488        F504   1.382       .  S
C488        F505   1.383       .  S
C488        F506   1.385       .  S
C490        F501   1.383       .  S
C490        F502   1.385       .  S
C490        F503   1.383       .  S
C492        C493   1.402       .  A
C492        C497   1.521   1_545  S
C493        C494   1.399       .  A
C493        H498   1.084       .  S
C494        C495   1.412       .  A
C495        C496   1.406       .  A
C495        C499   1.516       .  S
C496        H500   1.083   1_545  S
C497        F510   1.385   1_565  S
C497        F511   1.382       .  S
C497        F512   1.383       .  S
C499        F507   1.384       .  S
C499        F508   1.383       .  S
C499        F509   1.384       .  S
C513        C514   1.398   1_655  A
C513        C518   1.409       .  A
C513        H523   1.083   1_565  S
C514        C519   1.491   1_565  S
C514        C515   1.413       .  A
C515        C516   1.412   1_455  A
C515        C520   1.517       .  S
C516        C517   1.410       .  A
C516        H521   1.083       .  S
C517        C518   1.427       .  A
C518        C522   1.515       .  S
C519        C524   1.420       .  A
C519        C528   1.405       .  A
C520        F536   1.383       .  S
C520        F537   1.382       .  S
C520        F538   1.384       .  S
C522        F533   1.377       .  S
C522        F534   1.385   1_565  S
C522        F535   1.382       .  S
C524        C525   1.407       .  A
C524        C529   1.521   1_545  S
C525        C526   1.400       .  A
C525        H530   1.083       .  S
C526        C527   1.415       .  A
C527        C528   1.413       .  A
C527        C531   1.516       .  S
C528        H532   1.083       .  S
C529        F542   1.385       .  S
C529        F543   1.382       .  S
C529        F544   1.382       .  S
C531        F539   1.384       .  S
C531        F540   1.383       .  S
C531        F541   1.383       .  S
C545        C546   1.404       .  A
C545        C550   1.410       .  A
C545        H555   1.083       .  S
C546        C551   1.487       .  S
C546        C547   1.415       .  A
C547        C548   1.405       .  A
C547        C552   1.520       .  S
C548        C549   1.407       .  A
C548        H553   1.083       .  S
C549        C550   1.420       .  A
C550        C554   1.519       .  S
C551        C556   1.416       .  A
C551        C560   1.401       .  A
C552        F568   1.381       .  S
C552        F569   1.382       .  S
C552        F570   1.385       .  S
C554        F565   1.385       .  S
C554        F566   1.381       .  S
C554        F567   1.383       .  S
C556        C557   1.411   1_455  A
C556        C561   1.518   1_455  S
C557        C558   1.406       .  A
C557        H562   1.083       .  S
C558        C559   1.419   1_655  A
C559        C560   1.404       .  A
C559        C563   1.520       .  S
C560        H564   1.084       .  S
C561        F574   1.384       .  S
C561        F575   1.382   1_655  S
C561        F576   1.382   1_655  S
C563        F571   1.385       .  S
C563        F572   1.382       .  S
C563        F573   1.382       .  S
C577        C578   1.403       .  A
C577        C582   1.412       .  A
C577        H587   1.083       .  S
C578        C583   1.483       .  S
C578        C579   1.416       .  A
C579        C580   1.403       .  A
C579        C584   1.524       .  S
C580        C581   1.406       .  A
C580        H585   1.083       .  S
C581        C582   1.421       .  A
C582        C586   1.517       .  S
C583        C588   1.415       .  A
C583        C592   1.398       .  A
C584        F600   1.382       .  S
C584        F601   1.381       .  S
C584        F602   1.385       .  S
C586        F597   1.385       .  S
C586        F598   1.382       .  S
C586        F599   1.382       .  S
C588        C589   1.412       .  A
C588        C593   1.518       .  S
C589        C590   1.405       .  A
C589        H594   1.083       .  S
C590        C591   1.419       .  A
C591        C592   1.401       .  A
C591        C595   1.519       .  S
C592        H596   1.084       .  S
C593        F606   1.385       .  S
C593        F607   1.383       .  S
C593        F608   1.381       .  S
C595        F603   1.385       .  S
C595        F604   1.383       .  S
C595        F605   1.381       .  S
C609        C610   1.402       .  A
C609        C614   1.410       .  A
C609        H619   1.083       .  S
C610        C615   1.490       .  S
C610        C611   1.415       .  A
C611        C612   1.408       .  A
C611        C616   1.519       .  S
C612        C613   1.406       .  A
C612        H617   1.083       .  S
C613        C614   1.422       .  A
C614        C618   1.519       .  S
C615        C620   1.415       .  A
C615        C624   1.402   1_545  A
C616        F632   1.381       .  S
C616        F633   1.383       .  S
C616        F634   1.383       .  S
C618        F629   1.381       .  S
C618        F630   1.385       .  S
C618        F631   1.382       .  S
C620        C621   1.405   1_545  A
C620        C625   1.522       .  S
C621        C622   1.411       .  A
C621        H626   1.082       .  S
C622        C623   1.425       .  A
C623        C624   1.412       .  A
C623        C627   1.518       .  S
C624        H628   1.083       .  S
C625        F638   1.385       .  S
C625        F639   1.382       .  S
C625        F640   1.383       .  S
C627        F635   1.385       .  S
C627        F636   1.382       .  S
C627        F637   1.384       .  S
C641        C642   1.405       .  A
C641        C646   1.414       .  A
C641        H651   1.083       .  S
C642        C647   1.493       .  S
C642        C643   1.418       .  A
C643        C644   1.407       .  A
C643        C648   1.521       .  S
C644        C645   1.404       .  A
C644        H649   1.083       .  S
C645        C646   1.418       .  A
C646        C650   1.517       .  S
C647        C652   1.416       .  A
C647        C656   1.403       .  A
C648        F664   1.382       .  S
C648        F665   1.382       .  S
C648        F666   1.385       .  S
C650        F661   1.383       .  S
C650        F662   1.384       .  S
C650        F663   1.381       .  S
C652        C653   1.413       .  A
C652        C657   1.518       .  S
C653        C654   1.407       .  A
C653        H658   1.083       .  S
C654        C655   1.417       .  A
C655        C656   1.408       .  A
C655        C659   1.518       .  S
C656        H660   1.083       .  S
C657        F670   1.384       .  S
C657        F671   1.382       .  S
C657        F672   1.382       .  S
C659        F667   1.384       .  S
C659        F668   1.383       .  S
C659        F669   1.382       .  S
C673        C674   1.404       .  A
C673        C678   1.411       .  A
C673        H683   1.083       .  S
C674        C679   1.489       .  S
C674        C675   1.417       .  A
C675        C676   1.406       .  A
C675        C680   1.521       .  S
C676        C677   1.403       .  A
C676        H681   1.083       .  S
C677        C678   1.418       .  A
C678        C682   1.518       .  S
C679        C684   1.413       .  A
C679        C688   1.398       .  A
C680        F696   1.382       .  S
C680        F697   1.382       .  S
C680        F698   1.384       .  S
C682        F693   1.384       .  S
C682        F694   1.382       .  S
C682        F695   1.383       .  S
C684        C685   1.408       .  A
C684        C689   1.519       .  S
C685        C686   1.411       .  A
C685        H690   1.082       .  S
C686        C687   1.431       .  A
C687        C688   1.410       .  A
C687        C691   1.523       .  S
C688        H692   1.083       .  S
C689        F702   1.384       .  S
C689        F703   1.382       .  S
C689        F704   1.383       .  S
C691        F699   1.385       .  S
C691        F700   1.383       .  S
C691        F701   1.384       .  S
C705        C706   1.401       .  A
C705        C710   1.404       .  A
C705        H715   1.084       .  S
C706        C711   1.480       .  S
C706        C707   1.417       .  A
C707        C708   1.406       .  A
C707        C712   1.517       .  S
C708        C709   1.404       .  A
C708        H713   1.085       .  S
C709        C710   1.420       .  A
C710        C714   1.518       .  S
C711        C716   1.413       .  A
C711        C720   1.392       .  A
C712        F728   1.383       .  S
C712        F729   1.382       .  S
C712        F730   1.383       .  S
C714        F725   1.382       .  S
C714        F726   1.385       .  S
C714        F727   1.382       .  S
C716        C717   1.412       .  A
C716        C721   1.515       .  S
C717        C718   1.409       .  A
C717        H722   1.083       .  S
C718        C719   1.435       .  A
C719        C720   1.399       .  A
C719        C723   1.526       .  S
C720        H724   1.084       .  S
C721        F734   1.384       .  S
C721        F735   1.382       .  S
C721        F736   1.383       .  S
C723        F731   1.382       .  S
C723        F732   1.376       .  S
C723        F733   1.386       .  S
C737        C738   1.403       .  A
C737        C742   1.406   1_565  A
C737        H747   1.083       .  S
C738        C743   1.477       .  S
C738        C739   1.413   1_565  A
C739        C740   1.402       .  A
C739        C744   1.519       .  S
C740        C741   1.403       .  A
C740        H745   1.084       .  S
C741        C742   1.414       .  A
C742        C746   1.518       .  S
C743        C748   1.414       .  A
C743        C752   1.406       .  A
C744        F760   1.382       .  S
C744        F761   1.383   1_545  S
C744        F762   1.383       .  S
C746        F757   1.382       .  S
C746        F758   1.385       .  S
C746        F759   1.383       .  S
C748        C749   1.394       .  A
C748        C753   1.523       .  S
C749        C750   1.402       .  A
C749        H754   1.083       .  S
C750        C751   1.413       .  A
C751        C752   1.411       .  A
C751        C755   1.516       .  S
C752        H756   1.083       .  S
C753        F766   1.385       .  S
C753        F767   1.382       .  S
C753        F768   1.383       .  S
C755        F763   1.384       .  S
C755        F764   1.383       .  S
C755        F765   1.383       .  S
C769        C770   1.403       .  A
C769        C774   1.406       .  A
C769        H779   1.083       .  S
C770        C775   1.490       .  S
C770        C771   1.419       .  A
C771        C772   1.411       .  A
C771        C776   1.519       .  S
C772        C773   1.402       .  A
C772        H777   1.083       .  S
C773        C774   1.414       .  A
C774        C778   1.518       .  S
C775        C780   1.417       .  A
C775        C784   1.401       .  A
C776        F792   1.382       .  S
C776        F793   1.382       .  S
C776        F794   1.385       .  S
C778        F789   1.384       .  S
C778        F790   1.382       .  S
C778        F791   1.384       .  S
C780        C781   1.410       .  A
C780        C785   1.518       .  S
C781        C782   1.404       .  A
C781        H786   1.083       .  S
C782        C783   1.421       .  A
C783        C784   1.407       .  A
C783        C787   1.519       .  S
C784        H788   1.083       .  S
C785        F798   1.384       .  S
C785        F799   1.382       .  S
C785        F800   1.383       .  S
C787        F795   1.385       .  S
C787        F796   1.381       .  S
C787        F797   1.382       .  S
C801        C802   1.401       .  A
C801        C806   1.412       .  A
C801        H811   1.083       .  S
C802        C807   1.496   1_545  S
C802        C803   1.415       .  A
C803        C804   1.413       .  A
C803        C808   1.518       .  S
C804        C805   1.410       .  A
C804        H809   1.083       .  S
C805        C806   1.425       .  A
C806        C810   1.518       .  S
C807        C812   1.417       .  A
C807        C816   1.404       .  A
C808        F824   1.382   1_545  S
C808        F825   1.383   1_545  S
C808        F826   1.384       .  S
C810        F821   1.383       .  S
C810        F822   1.383       .  S
C810        F823   1.382       .  S
C812        C813   1.411       .  A
C812        C817   1.519   1_565  S
C813        C814   1.408       .  A
C813        H818   1.083       .  S
C814        C815   1.419       .  A
C815        C816   1.412       .  A
C815        C819   1.516       .  S
C816        H820   1.083       .  S
C817        F830   1.385       .  S
C817        F831   1.382       .  S
C817        F832   1.382       .  S
C819        F827   1.385       .  S
C819        F828   1.382       .  S
C819        F829   1.382       .  S
C833        C834   1.398       .  A
C833        C838   1.410       .  A
C833        H843   1.083       .  S
C834        C839   1.482       .  S
C834        C835   1.414       .  A
C835        C836   1.405       .  A
C835        C840   1.522       .  S
C836        C837   1.409       .  A
C836        H841   1.082       .  S
C837        C838   1.428       .  A
C838        C842   1.521       .  S
C839        C844   1.416       .  A
C839        C848   1.399       .  A
C840        F856   1.382       .  S
C840        F857   1.383       .  S
C840        F858   1.384       .  S
C842        F853   1.385       .  S
C842        F854   1.383       .  S
C842        F855   1.383       .  S
C844        C845   1.409       .  A
C844        C849   1.517       .  S
C845        C846   1.402       .  A
C845        H850   1.082       .  S
C846        C847   1.416       .  A
C847        C848   1.401       .  A
C847        C851   1.513       .  S
C848        H852   1.085       .  S
C849        F862   1.385       .  S
C849        F863   1.382       .  S
C849        F864   1.382       .  S
C851        F859   1.384       .  S
C851        F860   1.383       .  S
C851        F861   1.382       .  S
C865        C866   1.402       .  A
C865        C870   1.409       .  A
C865        H875   1.083       .  S
C866        C871   1.481       .  S
C866        C867   1.415       .  A
C867        C868   1.401       .  A
C867        C872   1.521       .  S
C868        C869   1.403       .  A
C868        H873   1.084       .  S
C869        C870   1.417       .  A
C870        C874   1.517       .  S
C871        C876   1.413       .  A
C871        C880   1.395   1_655  A
C872        F888   1.382       .  S
C872        F889   1.382       .  S
C872        F890   1.385       .  S
C874        F885   1.383       .  S
C874        F886   1.385       .  S
C874        F887   1.382       .  S
C876        C877   1.407   1_655  A
C876        C881   1.519       .  S
C877        C878   1.408       .  A
C877        H882   1.083       .  S
C878        C879   1.429       .  A
C879        C880   1.406       .  A
C879        C883   1.519       .  S
C880        H884   1.083       .  S
C881        F894   1.384       .  S
C881        F895   1.383       .  S
C881        F896   1.382       .  S
C883        F891   1.383       .  S
C883        F892   1.380       .  S
C883        F893   1.385       .  S
C897        C898   1.400       .  A
C897        C902   1.411       .  A
C897        H907   1.083   1_455  S
C898        C903   1.486   1_455  S
C898        C899   1.413       .  A
C899        C900   1.405       .  A
C899        C904   1.522       .  S
C900        C901   1.412       .  A
C900        H905   1.082       .  S
C901        C902   1.428       .  A
C902        C906   1.520       .  S
C903        C908   1.415       .  A
C903        C912   1.400       .  A
C904        F920   1.382       .  S
C904        F921   1.382       .  S
C904        F922   1.385       .  S
C906        F917   1.384       .  S
C906        F918   1.385       .  S
C906        F919   1.383       .  S
C908        C909   1.410       .  A
C908        C913   1.519   1_655  S
C909        C910   1.406       .  A
C909        H914   1.083       .  S
C910        C911   1.421       .  A
C911        C912   1.405       .  A
C911        C915   1.521       .  S
C912        H916   1.083       .  S
C913        F926   1.385   1_455  S
C913        F927   1.382   1_455  S
C913        F928   1.382       .  S
C915        F923   1.385       .  S
C915        F924   1.382       .  S
C915        F925   1.384       .  S
C929        C930   1.399   1_655  A
C929        C934   1.413       .  A
C929        H939   1.083       .  S
C930        C935   1.490       .  S
C930        C931   1.414       .  A
C931        C932   1.407   1_455  A
C931        C936   1.521       .  S
C932        C933   1.410       .  A
C932        H937   1.082       .  S
C933        C934   1.432       .  A
C934        C938   1.521       .  S
C935        C940   1.417       .  A
C935        C944   1.402       .  A
C936        F952   1.382       .  S
C936        F953   1.383       .  S
C936        F954   1.385       .  S
C938        F949   1.385       .  S
C938        F950   1.383       .  S
C938        F951   1.383       .  S
C940        C941   1.409       .  A
C940        C945   1.517       .  S
C941        C942   1.402       .  A
C941        H946   1.083       .  S
C942        C943   1.420       .  A
C943        C944   1.409       .  A
C943        C947   1.520       .  S
C944        H948   1.083       .  S
C945        F958   1.382       .  S
C945        F959   1.382       .  S
C945        F960   1.383       .  S
C947        F955   1.385       .  S
C947        F956   1.383       .  S
C947        F957   1.379       .  S
C961        C962   1.405       .  A
C961        C966   1.416       .  A
C961        H971   1.083       .  S
C962        C967   1.482       .  S
C962        C963   1.413       .  A
C963        C964   1.397       .  A
C963        C968   1.524       .  S
C964        C965   1.409       .  A
C964        H969   1.082       .  S
C965        C966   1.420       .  A
C966        C970   1.516       .  S
C967        C972   1.413       .  A
C967        C976   1.397       .  A
C968        F984   1.382       .  S
C968        F985   1.378       .  S
C968        F986   1.385       .  S
C970        F981   1.385       .  S
C970        F982   1.383       .  S
C970        F983   1.383       .  S
C972        C973   1.412       .  A
C972        C977   1.519       .  S
C973        C974   1.409       .  A
C973        H978   1.082       .  S
C974        C975   1.425       .  A
C975        C976   1.402       .  A
C975        C979   1.522       .  S
C976        H980   1.084       .  S
C977        F990   1.385       .  S
C977        F991   1.382       .  S
C977        F992   1.381       .  S
C979        F987   1.385       .  S
C979        F988   1.383       .  S
C979        F989   1.383       .  S
C993        C994   1.400       .  A
C993        C998   1.400   1_545  A
C993       H1003   1.084       .  S
C994        C999   1.473       .  S
C994        C995   1.413   1_545  A
C995        C996   1.407       .  A
C995       C1000   1.518       .  S
C996        C997   1.404       .  A
C996       H1001   1.083       .  S
C997        C998   1.413       .  A
C998       C1002   1.516       .  S
C999       C1004   1.417       .  A
C999       C1008   1.399       .  A
C1000      F1016   1.383       .  S
C1000      F1017   1.382       .  S
C1000      F1018   1.384       .  S
C1002      F1013   1.381       .  S
C1002      F1014   1.385   1_565  S
C1002      F1015   1.384       .  S
C1004      C1005   1.403       .  A
C1004      C1009   1.521       .  S
C1005      C1006   1.399       .  A
C1005      H1010   1.083       .  S
C1006      C1007   1.417       .  A
C1007      C1008   1.403       .  A
C1007      C1011   1.516       .  S
C1008      H1012   1.084       .  S
C1009      F1022   1.385       .  S
C1009      F1023   1.383       .  S
C1009      F1024   1.380       .  S
C1011      F1019   1.380       .  S
C1011      F1020   1.383       .  S
C1011      F1021   1.385       .  S
C1025      C1026   1.395       .  A
C1025      C1030   1.403       .  A
C1025      H1035   1.083       .  S
C1026      C1031   1.484       .  S
C1026      C1027   1.415       .  A
C1027      C1028   1.411       .  A
C1027      C1032   1.519       .  S
C1028      C1029   1.409       .  A
C1028      H1033   1.083       .  S
C1029      C1030   1.433       .  A
C1030      C1034   1.527       .  S
C1031      C1036   1.417       .  A
C1031      C1040   1.398       .  A
C1032      F1048   1.382       .  S
C1032      F1049   1.383       .  S
C1032      F1050   1.384       .  S
C1034      F1045   1.383       .  S
C1034      F1046   1.385       .  S
C1034      F1047   1.384       .  S
C1036      C1037   1.409       .  A
C1036      C1041   1.518       .  S
C1037      C1038   1.405       .  A
C1037      H1042   1.083       .  S
C1038      C1039   1.425       .  A
C1039      C1040   1.402       .  A
C1039      C1043   1.522       .  S
C1040      H1044   1.083       .  S
C1041      F1054   1.384       .  S
C1041      F1055   1.382       .  S
C1041      F1056   1.383       .  S
C1043      F1051   1.383       .  S
C1043      F1052   1.383       .  S
C1043      F1053   1.385       .  S
C1057      C1058   1.399   1_655  A
C1057      C1062   1.405       .  A
C1057      H1067   1.083       .  S
C1058      C1063   1.486       .  S
C1058      C1059   1.415       .  A
C1059      C1060   1.410   1_455  A
C1059      C1064   1.517       .  S
C1060      C1061   1.405       .  A
C1060      H1065   1.083       .  S
C1061      C1062   1.418       .  A
C1062      C1066   1.512       .  S
C1063      C1068   1.418       .  A
C1063      C1072   1.405       .  A
C1064      F1080   1.382       .  S
C1064      F1081   1.382       .  S
C1064      F1082   1.385       .  S
C1066      F1077   1.383       .  S
C1066      F1078   1.385       .  S
C1066      F1079   1.378       .  S
C1068      C1069   1.406       .  A
C1068      C1073   1.521       .  S
C1069      C1070   1.400       .  A
C1069      H1074   1.084       .  S
C1070      C1071   1.413       .  A
C1071      C1072   1.409       .  A
C1071      C1075   1.516       .  S
C1072      H1076   1.083       .  S
C1073      F1086   1.385       .  S
C1073      F1087   1.382       .  S
C1073      F1088   1.382       .  S
C1075      F1083   1.384       .  S
C1075      F1084   1.383       .  S
C1075      F1085   1.383       .  S
C1089      C1090   1.397       .  A
C1089      C1094   1.408       .  A
C1089      H1099   1.083       .  S
C1090      C1095   1.489       .  S
C1090      C1091   1.413       .  A
C1091      C1092   1.411       .  A
C1091      C1096   1.518       .  S
C1092      C1093   1.410       .  A
C1092      H1097   1.082       .  S
C1093      C1094   1.432       .  A
C1094      C1098   1.524       .  S
C1095      C1100   1.416       .  A
C1095      C1104   1.401       .  A
C1096      F1112   1.382       .  S
C1096      F1113   1.382       .  S
C1096      F1114   1.384       .  S
C1098      F1109   1.383       .  S
C1098      F1110   1.385       .  S
C1098      F1111   1.384       .  S
C1100      C1101   1.409       .  A
C1100      C1105   1.520       .  S
C1101      C1102   1.407       .  A
C1101      H1106   1.083       .  S
C1102      C1103   1.424       .  A
C1103      C1104   1.410       .  A
C1103      C1107   1.520       .  S
C1104      H1108   1.083       .  S
C1105      F1118   1.384       .  S
C1105      F1119   1.382       .  S
C1105      F1120   1.382       .  S
C1107      F1115   1.383       .  S
C1107      F1116   1.384       .  S
C1107      F1117   1.385       .  S
C1121      C1122   1.402       .  A
C1121      C1126   1.405       .  A
C1121      H1131   1.083       .  S
C1122      C1127   1.489       .  S
C1122      C1123   1.419       .  A
C1123      C1124   1.413       .  A
C1123      C1128   1.519       .  S
C1124      C1125   1.404       .  A
C1124      H1129   1.083       .  S
C1125      C1126   1.417       .  A
C1126      C1130   1.520       .  S
C1127      C1132   1.417   1_455  A
C1127      C1136   1.403       .  A
C1128      F1144   1.382       .  S
C1128      F1145   1.381       .  S
C1128      F1146   1.385       .  S
C1130      F1141   1.384       .  S
C1130      F1142   1.382       .  S
C1130      F1143   1.383       .  S
C1132      C1133   1.412       .  A
C1132      C1137   1.518       .  S
C1133      C1134   1.404       .  A
C1133      H1138   1.083       .  S
C1134      C1135   1.416   1_654  A
C1135      C1136   1.406   1_556  A
C1135      C1139   1.518       .  S
C1136      H1140   1.083       .  S
C1137      F1150   1.384       .  S
C1137      F1151   1.382       .  S
C1137      F1152   1.381       .  S
C1139      F1147   1.382       .  S
C1139      F1148   1.383   1_455  S
C1139      F1149   1.385       .  S
C1153      C1154   1.399       .  A
C1153      C1158   1.410       .  A
C1153      H1163   1.083       .  S
C1154      C1159   1.484       .  S
C1154      C1155   1.413   1_556  A
C1155      C1156   1.404       .  A
C1155      C1160   1.522       .  S
C1156      C1157   1.411       .  A
C1156      H1161   1.082       .  S
C1157      C1158   1.428   1_554  A
C1158      C1162   1.519       .  S
C1159      C1164   1.416       .  A
C1159      C1168   1.400       .  A
C1160      F1176   1.382       .  S
C1160      F1177   1.383       .  S
C1160      F1178   1.385       .  S
C1162      F1173   1.385       .  S
C1162      F1174   1.381       .  S
C1162      F1175   1.383       .  S
C1164      C1165   1.408       .  A
C1164      C1169   1.519       .  S
C1165      C1166   1.404       .  A
C1165      H1170   1.081       .  S
C1166      C1167   1.418       .  A
C1167      C1168   1.406       .  A
C1167      C1171   1.513       .  S
C1168      H1172   1.084       .  S
C1169      F1182   1.384       .  S
C1169      F1183   1.382       .  S
C1169      F1184   1.383   1_556  S
C1171      F1179   1.384       .  S
C1171      F1180   1.381       .  S
C1171      F1181   1.385       .  S
C1185      C1186   1.402       .  A
C1185      C1190   1.410       .  A
C1185      H1195   1.083       .  S
C1186      C1191   1.479       .  S
C1186      C1187   1.411       .  A
C1187      C1188   1.400       .  A
C1187      C1192   1.521       .  S
C1188      C1189   1.408       .  A
C1188      H1193   1.083       .  S
C1189      C1190   1.422       .  A
C1190      C1194   1.519       .  S
C1191      C1196   1.414   1_554  A
C1191      C1200   1.399       .  A
C1192      F1208   1.382       .  S
C1192      F1209   1.383       .  S
C1192      F1210   1.384       .  S
C1194      F1205   1.383       .  S
C1194      F1206   1.385       .  S
C1194      F1207   1.384       .  S
C1196      C1197   1.403       .  A
C1196      C1201   1.521       .  S
C1197      C1198   1.406       .  A
C1197      H1202   1.083       .  S
C1198      C1199   1.422   1_556  A
C1199      C1200   1.407       .  A
C1199      C1203   1.519       .  S
C1200      H1204   1.083       .  S
C1201      F1214   1.385       .  S
C1201      F1215   1.382       .  S
C1201      F1216   1.382       .  S
C1203      F1211   1.382       .  S
C1203      F1212   1.383       .  S
C1203      F1213   1.385       .  S
C1217      C1218   1.403       .  A
C1217      C1222   1.408       .  A
C1217      H1227   1.083       .  S
C1218      C1223   1.478       .  S
C1218      C1219   1.413       .  A
C1219      C1220   1.401       .  A
C1219      C1224   1.520       .  S
C1220      C1221   1.403       .  A
C1220      H1225   1.083       .  S
C1221      C1222   1.414       .  A
C1222      C1226   1.516       .  S
C1223      C1228   1.412   1_556  A
C1223      C1232   1.397   1_545  A
C1224      F1240   1.382       .  S
C1224      F1241   1.382   1_556  S
C1224      F1242   1.383       .  S
C1226      F1237   1.383       .  S
C1226      F1238   1.385       .  S
C1226      F1239   1.382       .  S
C1228      C1229   1.401   1_545  A
C1228      C1233   1.522       .  S
C1229      C1230   1.410       .  A
C1229      H1234   1.082       .  S
C1230      C1231   1.428   1_554  A
C1231      C1232   1.408       .  A
C1231      C1235   1.519       .  S
C1232      H1236   1.083       .  S
C1233      F1246   1.385       .  S
C1233      F1247   1.382       .  S
C1233      F1248   1.382       .  S
C1235      F1243   1.383       .  S
C1235      F1244   1.383       .  S
C1235      F1245   1.385       .  S
C1249      C1250   1.401       .  A
C1249      C1254   1.412       .  A
C1249      H1259   1.083       .  S
C1250      C1255   1.489       .  S
C1250      C1251   1.414       .  A
C1251      C1252   1.407       .  A
C1251      C1256   1.521       .  S
C1252      C1253   1.410       .  A
C1252      H1257   1.082       .  S
C1253      C1254   1.425       .  A
C1254      C1258   1.519       .  S
C1255      C1260   1.415       .  A
C1255      C1264   1.399       .  A
C1256      F1272   1.382       .  S
C1256      F1273   1.382       .  S
C1256      F1274   1.384       .  S
C1258      F1269   1.385       .  S
C1258      F1270   1.384       .  S
C1258      F1271   1.382       .  S
C1260      C1261   1.410       .  A
C1260      C1265   1.520       .  S
C1261      C1262   1.409       .  A
C1261      H1266   1.083       .  S
C1262      C1263   1.426       .  A
C1263      C1264   1.409       .  A
C1263      C1267   1.519       .  S
C1264      H1268   1.083       .  S
C1265      F1278   1.384       .  S
C1265      F1279   1.382       .  S
C1265      F1280   1.382       .  S
C1267      F1275   1.385       .  S
C1267      F1276   1.383       .  S
C1267      F1277   1.383       .  S
C1281      C1282   1.399   1_545  A
C1281      C1286   1.407   1_545  A
C1281      H1291   1.083       .  S
C1282      C1287   1.491   1_565  S
C1282      C1283   1.416       .  A
C1283      C1284   1.411       .  A
C1283      C1288   1.518       .  S
C1284      C1285   1.407       .  A
C1284      H1289   1.083       .  S
C1285      C1286   1.427       .  A
C1286      C1290   1.521       .  S
C1287      C1292   1.416       .  A
C1287      C1296   1.403       .  A
C1288      F1304   1.382       .  S
C1288      F1305   1.383       .  S
C1288      F1306   1.384       .  S
C1290      F1301   1.383       .  S
C1290      F1302   1.385   1_565  S
C1290      F1303   1.382       .  S
C1292      C1293   1.406       .  A
C1292      C1297   1.521   1_545  S
C1293      C1294   1.408       .  A
C1293      H1298   1.083       .  S
C1294      C1295   1.423       .  A
C1295      C1296   1.412       .  A
C1295      C1299   1.519       .  S
C1296      H1300   1.083       .  S
C1297      F1310   1.384       .  S
C1297      F1311   1.382       .  S
C1297      F1312   1.383       .  S
C1299      F1307   1.385       .  S
C1299      F1308   1.382       .  S
C1299      F1309   1.384       .  S
C1313      C1314   1.400       .  A
C1313      C1318   1.412       .  A
C1313      H1323   1.083       .  S
C1314      C1319   1.488       .  S
C1314      C1315   1.414   1_556  A
C1315      C1316   1.406       .  A
C1315      C1320   1.521       .  S
C1316      C1317   1.410       .  A
C1316      H1321   1.082       .  S
C1317      C1318   1.429   1_554  A
C1318      C1322   1.521       .  S
C1319      C1324   1.417       .  A
C1319      C1328   1.402       .  A
C1320      F1336   1.381   1_554  S
C1320      F1337   1.383       .  S
C1320      F1338   1.384       .  S
C1322      F1333   1.385       .  S
C1322      F1334   1.383       .  S
C1322      F1335   1.383       .  S
C1324      C1325   1.408       .  A
C1324      C1329   1.519       .  S
C1325      C1326   1.404       .  A
C1325      H1330   1.084       .  S
C1326      C1327   1.417       .  A
C1327      C1328   1.406       .  A
C1327      C1331   1.518       .  S
C1328      H1332   1.085       .  S
C1329      F1342   1.385   1_556  S
C1329      F1343   1.382       .  S
C1329      F1344   1.382   1_556  S
C1331      F1339   1.384       .  S
C1331      F1340   1.382       .  S
C1331      F1341   1.382       .  S
C1345      C1346   1.405       .  A
C1345      C1350   1.408   1_554  A
C1345      H1355   1.083   1_455  S
C1346      C1351   1.490   1_455  S
C1346      C1347   1.420       .  A
C1347      C1348   1.409       .  A
C1347      C1352   1.518       .  S
C1348      C1349   1.403   1_554  A
C1348      H1353   1.085       .  S
C1349      C1350   1.414       .  A
C1350      C1354   1.516       .  S
C1351      C1356   1.416       .  A
C1351      C1360   1.401       .  A
C1352      F1368   1.383       .  S
C1352      F1369   1.382       .  S
C1352      F1370   1.384       .  S
C1354      F1365   1.385       .  S
C1354      F1366   1.381       .  S
C1354      F1367   1.384       .  S
C1356      C1357   1.412       .  A
C1356      C1361   1.516       .  S
C1357      C1358   1.404       .  A
C1357      H1362   1.080       .  S
C1358      C1359   1.419       .  A
C1359      C1360   1.405       .  A
C1359      C1363   1.516       .  S
C1360      H1364   1.085       .  S
C1361      F1374   1.384       .  S
C1361      F1375   1.382       .  S
C1361      F1376   1.383   1_655  S
C1363      F1371   1.384       .  S
C1363      F1372   1.382   1_554  S
C1363      F1373   1.380       .  S
C1377      C1378   1.402   1_545  A
C1377      C1382   1.409       .  A
C1377      H1387   1.083       .  S
C1378      C1383   1.484       .  S
C1378      C1379   1.418       .  A
C1379      C1380   1.405   1_566  A
C1379      C1384   1.521   1_556  S
C1380      C1381   1.402       .  A
C1380      H1385   1.084       .  S
C1381      C1382   1.418   1_554  A
C1382      C1386   1.518       .  S
C1383      C1388   1.416       .  A
C1383      C1392   1.400       .  A
C1384      F1400   1.381       .  S
C1384      F1401   1.382   1_554  S
C1384      F1402   1.384       .  S
C1386      F1397   1.383       .  S
C1386      F1398   1.385       .  S
C1386      F1399   1.381       .  S
C1388      C1389   1.411       .  A
C1388      C1393   1.517       .  S
C1389      C1390   1.404       .  A
C1389      H1394   1.082       .  S
C1390      C1391   1.417       .  A
C1391      C1392   1.402       .  A
C1391      C1395   1.519       .  S
C1392      H1396   1.084       .  S
C1393      F1406   1.384       .  S
C1393      F1407   1.382       .  S
C1393      F1408   1.382       .  S
C1395      F1403   1.385       .  S
C1395      F1404   1.383       .  S
C1395      F1405   1.382   1_556  S
C1409      C1410   1.399   1_556  A
C1409      C1414   1.402       .  A
C1409      H1419   1.083       .  S
C1410      C1415   1.483       .  S
C1410      C1411   1.416       .  A
C1411      C1412   1.409       .  A
C1411      C1416   1.518       .  S
C1412      C1413   1.405   1_554  A
C1412      H1417   1.083       .  S
C1413      C1414   1.421       .  A
C1414      C1418   1.521       .  S
C1415      C1420   1.416       .  A
C1415      C1424   1.400       .  A
C1416      F1432   1.381       .  S
C1416      F1433   1.383       .  S
C1416      F1434   1.385       .  S
C1418      F1429   1.385       .  S
C1418      F1430   1.379       .  S
C1418      F1431   1.381       .  S
C1420      C1421   1.404       .  A
C1420      C1425   1.518       .  S
C1421      C1422   1.407       .  A
C1421      H1426   1.084       .  S
C1422      C1423   1.423       .  A
C1423      C1424   1.404       .  A
C1423      C1427   1.517       .  S
C1424      H1428   1.083       .  S
C1425      F1438   1.384       .  S
C1425      F1439   1.383       .  S
C1425      F1440   1.383       .  S
C1427      F1435   1.383       .  S
C1427      F1436   1.382       .  S
C1427      F1437   1.385       .  S
C1441      C1442   1.400       .  A
C1441      C1446   1.406       .  A
C1441      H1451   1.083       .  S
C1442      C1447   1.491       .  S
C1442      C1443   1.416       .  A
C1443      C1444   1.413       .  A
C1443      C1448   1.517       .  S
C1444      C1445   1.407       .  A
C1444      H1449   1.083       .  S
C1445      C1446   1.422       .  A
C1446      C1450   1.519       .  S
C1447      C1452   1.416       .  A
C1447      C1456   1.401       .  A
C1448      F1464   1.382       .  S
C1448      F1465   1.382       .  S
C1448      F1466   1.385       .  S
C1450      F1461   1.385       .  S
C1450      F1462   1.382       .  S
C1450      F1463   1.383       .  S
C1452      C1453   1.409       .  A
C1452      C1457   1.520       .  S
C1453      C1454   1.406       .  A
C1453      H1458   1.083       .  S
C1454      C1455   1.425       .  A
C1455      C1456   1.411       .  A
C1455      C1459   1.520       .  S
C1456      H1460   1.083       .  S
C1457      F1470   1.384       .  S
C1457      F1471   1.382       .  S
C1457      F1472   1.382       .  S
C1459      F1467   1.385       .  S
C1459      F1468   1.382       .  S
C1459      F1469   1.383       .  S
C1473      C1474   1.400       .  A
C1473      C1478   1.411       .  A
C1473      H1483   1.083       .  S
C1474      C1479   1.492       .  S
C1474      C1475   1.413       .  A
C1475      C1476   1.410       .  A
C1475      C1480   1.519       .  S
C1476      C1477   1.412       .  A
C1476      H1481   1.082       .  S
C1477      C1478   1.429       .  A
C1478      C1482   1.521       .  S
C1479      C1484   1.418       .  A
C1479      C1488   1.403       .  A
C1480      F1496   1.382       .  S
C1480      F1497   1.382       .  S
C1480      F1498   1.384       .  S
C1482      F1493   1.383       .  S
C1482      F1494   1.385       .  S
C1482      F1495   1.384       .  S
C1484      C1485   1.409       .  A
C1484      C1489   1.520       .  S
C1485      C1486   1.404       .  A
C1485      H1490   1.083       .  S
C1486      C1487   1.420       .  A
C1487      C1488   1.411       .  A
C1487      C1491   1.518       .  S
C1488      H1492   1.083       .  S
C1489      F1502   1.384       .  S
C1489      F1503   1.382       .  S
C1489      F1504   1.382       .  S
C1491      F1499   1.382       .  S
C1491      F1500   1.384       .  S
C1491      F1501   1.385       .  S
C1505      C1506   1.405       .  A
C1505      C1510   1.413       .  A
C1505      H1515   1.083       .  S
C1506      C1511   1.492       .  S
C1506      C1507   1.417       .  A
C1507      C1508   1.406       .  A
C1507      C1512   1.521       .  S
C1508      C1509   1.404       .  A
C1508      H1513   1.083       .  S
C1509      C1510   1.418       .  A
C1510      C1514   1.518       .  S
C1511      C1516   1.415       .  A
C1511      C1520   1.403       .  A
C1512      F1528   1.381       .  S
C1512      F1529   1.383       .  S
C1512      F1530   1.385       .  S
C1514      F1525   1.383       .  S
C1514      F1526   1.384       .  S
C1514      F1527   1.383       .  S
C1516      C1517   1.409       .  A
C1516      C1521   1.520       .  S
C1517      C1518   1.407       .  A
C1517      H1522   1.079       .  S
C1518      C1519   1.423       .  A
C1519      C1520   1.411       .  A
C1519      C1523   1.518       .  S
C1520      H1524   1.083       .  S
C1521      F1534   1.383       .  S
C1521      F1535   1.382       .  S
C1521      F1536   1.383       .  S
C1523      F1531   1.385       .  S
C1523      F1532   1.382       .  S
C1523      F1533   1.382       .  S
C1537      C1538   1.404       .  A
C1537      C1542   1.414       .  A
C1537      H1547   1.083       .  S
C1538      C1543   1.495       .  S
C1538      C1539   1.416       .  A
C1539      C1540   1.408       .  A
C1539      C1544   1.521       .  S
C1540      C1541   1.407       .  A
C1540      H1545   1.083       .  S
C1541      C1542   1.422       .  A
C1542      C1546   1.518       .  S
C1543      C1548   1.415       .  A
C1543      C1552   1.401       .  A
C1544      F1560   1.382       .  S
C1544      F1561   1.383       .  S
C1544      F1562   1.385       .  S
C1546      F1557   1.385       .  S
C1546      F1558   1.382       .  S
C1546      F1559   1.384       .  S
C1548      C1549   1.409       .  A
C1548      C1553   1.520       .  S
C1549      C1550   1.412       .  A
C1549      H1554   1.082       .  S
C1550      C1551   1.427       .  A
C1551      C1552   1.412       .  A
C1551      C1555   1.520       .  S
C1552      H1556   1.083       .  S
C1553      F1566   1.385       .  S
C1553      F1567   1.382       .  S
C1553      F1568   1.382       .  S
C1555      F1563   1.385       .  S
C1555      F1564   1.383       .  S
C1555      F1565   1.383       .  S
C1569      C1570   1.404       .  A
C1569      C1574   1.413       .  A
C1569      H1579   1.083       .  S
C1570      C1575   1.485       .  S
C1570      C1571   1.416       .  A
C1571      C1572   1.404       .  A
C1571      C1576   1.522       .  S
C1572      C1573   1.403       .  A
C1572      H1577   1.083       .  S
C1573      C1574   1.419       .  A
C1574      C1578   1.518       .  S
C1575      C1580   1.416       .  A
C1575      C1584   1.402   1_655  A
C1576      F1592   1.383       .  S
C1576      F1593   1.381       .  S
C1576      F1594   1.384       .  S
C1578      F1589   1.381       .  S
C1578      F1590   1.385       .  S
C1578      F1591   1.383       .  S
C1580      C1581   1.406   1_655  A
C1580      C1585   1.518       .  S
C1581      C1582   1.402       .  A
C1581      H1586   1.084       .  S
C1582      C1583   1.416       .  A
C1583      C1584   1.408       .  A
C1583      C1587   1.517       .  S
C1584      H1588   1.083       .  S
C1585      F1598   1.385       .  S
C1585      F1599   1.381       .  S
C1585      F1600   1.382       .  S
C1587      F1595   1.383       .  S
C1587      F1596   1.381       .  S
C1587      F1597   1.384       .  S
C1601      C1602   1.401       .  A
C1601      C1606   1.411       .  A
C1601      H1611   1.083       .  S
C1602      C1607   1.482       .  S
C1602      C1603   1.412       .  A
C1603      C1604   1.403       .  A
C1603      C1608   1.521       .  S
C1604      C1605   1.409       .  A
C1604      H1609   1.083       .  S
C1605      C1606   1.425       .  A
C1606      C1610   1.519       .  S
C1607      C1612   1.410       .  A
C1607      C1616   1.400       .  A
C1608      F1624   1.382       .  S
C1608      F1625   1.382       .  S
C1608      F1626   1.381       .  S
C1610      F1621   1.383       .  S
C1610      F1622   1.385       .  S
C1610      F1623   1.383       .  S
C1612      C1613   1.406       .  A
C1612      C1617   1.518       .  S
C1613      C1614   1.410       .  A
C1613      H1618   1.083       .  S
C1614      C1615   1.424       .  A
C1615      C1616   1.406       .  A
C1615      C1619   1.519       .  S
C1616      H1620   1.083       .  S
C1617      F1630   1.384       .  S
C1617      F1631   1.383       .  S
C1617      F1632   1.382       .  S
C1619      F1627   1.382       .  S
C1619      F1628   1.378       .  S
C1619      F1629   1.385       .  S
C1633      C1634   1.404       .  A
C1633      C1638   1.410       .  A
C1633      H1643   1.083       .  S
C1634      C1639   1.493       .  S
C1634      C1635   1.417       .  A
C1635      C1636   1.410       .  A
C1635      C1640   1.517       .  S
C1636      C1637   1.403       .  A
C1636      H1641   1.083       .  S
C1637      C1638   1.414       .  A
C1638      C1642   1.516       .  S
C1639      C1644   1.416       .  A
C1639      C1648   1.402       .  A
C1640      F1656   1.382       .  S
C1640      F1657   1.383       .  S
C1640      F1658   1.384       .  S
C1642      F1653   1.381       .  S
C1642      F1654   1.384       .  S
C1642      F1655   1.383       .  S
C1644      C1645   1.407       .  A
C1644      C1649   1.522       .  S
C1645      C1646   1.409       .  A
C1645      H1650   1.082       .  S
C1646      C1647   1.426       .  A
C1647      C1648   1.414       .  A
C1647      C1651   1.519       .  S
C1648      H1652   1.082       .  S
C1649      F1662   1.385       .  S
C1649      F1663   1.382       .  S
C1649      F1664   1.383       .  S
C1651      F1659   1.382       .  S
C1651      F1660   1.384       .  S
C1651      F1661   1.385       .  S
C1665      C1666   1.403       .  A
C1665      C1670   1.409       .  A
C1665      H1675   1.083       .  S
C1666      C1671   1.487   1_545  S
C1666      C1667   1.417       .  A
C1667      C1668   1.407       .  A
C1667      C1672   1.519       .  S
C1668      C1669   1.402       .  A
C1668      H1673   1.084       .  S
C1669      C1670   1.414       .  A
C1670      C1674   1.517       .  S
C1671      C1676   1.417       .  A
C1671      C1680   1.403       .  A
C1672      F1688   1.382       .  S
C1672      F1689   1.383       .  S
C1672      F1690   1.384       .  S
C1674      F1685   1.383       .  S
C1674      F1686   1.384       .  S
C1674      F1687   1.383       .  S
C1676      C1677   1.403       .  A
C1676      C1681   1.521   1_565  S
C1677      C1678   1.404       .  A
C1677      H1682   1.083       .  S
C1678      C1679   1.421       .  A
C1679      C1680   1.412       .  A
C1679      C1683   1.518       .  S
C1680      H1684   1.083       .  S
C1681      F1694   1.384       .  S
C1681      F1695   1.382       .  S
C1681      F1696   1.383       .  S
C1683      F1691   1.382       .  S
C1683      F1692   1.383       .  S
C1683      F1693   1.385       .  S
C1697      C1698   1.399       .  A
C1697      C1702   1.411       .  A
C1697      H1707   1.083       .  S
C1698      C1703   1.491       .  S
C1698      C1699   1.414       .  A
C1699      C1700   1.410       .  A
C1699      C1704   1.519       .  S
C1700      C1701   1.410       .  A
C1700      H1705   1.082       .  S
C1701      C1702   1.430       .  A
C1702      C1706   1.522       .  S
C1703      C1708   1.417       .  A
C1703      C1712   1.404       .  A
C1704      F1720   1.382       .  S
C1704      F1721   1.383       .  S
C1704      F1722   1.384       .  S
C1706      F1717   1.384       .  S
C1706      F1718   1.385       .  S
C1706      F1719   1.383       .  S
C1708      C1709   1.408       .  A
C1708      C1713   1.520       .  S
C1709      C1710   1.405       .  A
C1709      H1714   1.083       .  S
C1710      C1711   1.417       .  A
C1711      C1712   1.411       .  A
C1711      C1715   1.517       .  S
C1712      H1716   1.083       .  S
C1713      F1726   1.385       .  S
C1713      F1727   1.382       .  S
C1713      F1728   1.382       .  S
C1715      F1723   1.384       .  S
C1715      F1724   1.382       .  S
C1715      F1725   1.384       .  S
C1729      C1730   1.402       .  A
C1729      C1734   1.411       .  A
C1729      H1739   1.083   1_655  S
C1730      C1735   1.484   1_645  S
C1730      C1731   1.414       .  A
C1731      C1732   1.403       .  A
C1731      C1736   1.522   1_545  S
C1732      C1733   1.408       .  A
C1732      H1737   1.083       .  S
C1733      C1734   1.422       .  A
C1734      C1738   1.518       .  S
C1735      C1740   1.416       .  A
C1735      C1744   1.401       .  A
C1736      F1752   1.382       .  S
C1736      F1753   1.383       .  S
C1736      F1754   1.385       .  S
C1738      F1749   1.385       .  S
C1738      F1750   1.382       .  S
C1738      F1751   1.384       .  S
C1740      C1741   1.408       .  A
C1740      C1745   1.518   1_455  S
C1741      C1742   1.402       .  A
C1741      H1746   1.083       .  S
C1742      C1743   1.417       .  A
C1743      C1744   1.406       .  A
C1743      C1747   1.515       .  S
C1744      H1748   1.083   1_565  S
C1745      F1758   1.384   1_655  S
C1745      F1759   1.382       .  S
C1745      F1760   1.382       .  S
C1747      F1755   1.385       .  S
C1747      F1756   1.382       .  S
C1747      F1757   1.383       .  S
C1761      C1762   1.398       .  A
C1761      C1766   1.409   1_565  A
C1761      H1771   1.082       .  S
C1762      C1767   1.487       .  S
C1762      C1763   1.415       .  A
C1763      C1764   1.407   1_565  A
C1763      C1768   1.522       .  S
C1764      C1765   1.410       .  A
C1764      H1769   1.082       .  S
C1765      C1766   1.428       .  A
C1766      C1770   1.520       .  S
C1767      C1772   1.414       .  A
C1767      C1776   1.403       .  A
C1768      F1784   1.382       .  S
C1768      F1785   1.383       .  S
C1768      F1786   1.385       .  S
C1770      F1781   1.384       .  S
C1770      F1782   1.385       .  S
C1770      F1783   1.383       .  S
C1772      C1773   1.402       .  A
C1772      C1777   1.520       .  S
C1773      C1774   1.405       .  A
C1773      H1778   1.081       .  S
C1774      C1775   1.423       .  A
C1775      C1776   1.411       .  A
C1775      C1779   1.518       .  S
C1776      H1780   1.083       .  S
C1777      F1790   1.383       .  S
C1777      F1791   1.382       .  S
C1777      F1792   1.383       .  S
C1779      F1787   1.385       .  S
C1779      F1788   1.383       .  S
C1779      F1789   1.382       .  S
C1793      C1794   1.400       .  A
C1793      C1798   1.403       .  A
C1793      H1803   1.084       .  S
C1794      C1799   1.485       .  S
C1794      C1795   1.416       .  A
C1795      C1796   1.412       .  A
C1795      C1800   1.517       .  S
C1796      C1797   1.405       .  A
C1796      H1801   1.083       .  S
C1797      C1798   1.414       .  A
C1798      C1802   1.513       .  S
C1799      C1804   1.418       .  A
C1799      C1808   1.401       .  A
C1800      F1816   1.382       .  S
C1800      F1817   1.381       .  S
C1800      F1818   1.385       .  S
C1802      F1813   1.382       .  S
C1802      F1814   1.385       .  S
C1802      F1815   1.383       .  S
C1804      C1805   1.407       .  A
C1804      C1809   1.520       .  S
C1805      C1806   1.402       .  A
C1805      H1810   1.083       .  S
C1806      C1807   1.421       .  A
C1807      C1808   1.406       .  A
C1807      C1811   1.518       .  S
C1808      H1812   1.085       .  S
C1809      F1822   1.384       .  S
C1809      F1823   1.382       .  S
C1809      F1824   1.380       .  S
C1811      F1819   1.383       .  S
C1811      F1820   1.379       .  S
C1811      F1821   1.383       .  S
C1825      C1826   1.403       .  A
C1825      C1830   1.408       .  A
C1825      H1835   1.083       .  S
C1826      C1831   1.488       .  S
C1826      C1827   1.417       .  A
C1827      C1828   1.408       .  A
C1827      C1832   1.519       .  S
C1828      C1829   1.404       .  A
C1828      H1833   1.083       .  S
C1829      C1830   1.416       .  A
C1830      C1834   1.518       .  S
C1831      C1836   1.413   1_455  A
C1831      C1840   1.402       .  A
C1832      F1848   1.381       .  S
C1832      F1849   1.382       .  S
C1832      F1850   1.385       .  S
C1834      F1845   1.385       .  S
C1834      F1846   1.381       .  S
C1834      F1847   1.383       .  S
C1836      C1837   1.408       .  A
C1836      C1841   1.519       .  S
C1837      C1838   1.408       .  A
C1837      H1842   1.075       .  S
C1838      C1839   1.425       .  A
C1839      C1840   1.407   1_655  A
C1839      C1843   1.522       .  S
C1840      H1844   1.083       .  S
C1841      F1854   1.384       .  S
C1841      F1855   1.382       .  S
C1841      F1856   1.382       .  S
C1843      F1851   1.383       .  S
C1843      F1852   1.384       .  S
C1843      F1853   1.385   1_655  S
C1857      C1858   1.398       .  A
C1857      C1862   1.404       .  A
C1857      H1867   1.084       .  S
C1858      C1863   1.485       .  S
C1858      C1859   1.413       .  A
C1859      C1860   1.412       .  A
C1859      C1864   1.516       .  S
C1860      C1861   1.409       .  A
C1860      H1865   1.083       .  S
C1861      C1862   1.425       .  A
C1862      C1866   1.521       .  S
C1863      C1868   1.419       .  A
C1863      C1872   1.406       .  A
C1864      F1880   1.382       .  S
C1864      F1881   1.383       .  S
C1864      F1882   1.384       .  S
C1866      F1877   1.385       .  S
C1866      F1878   1.382       .  S
C1866      F1879   1.380       .  S
C1868      C1869   1.402       .  A
C1868      C1873   1.518       .  S
C1869      C1870   1.398       .  A
C1869      H1874   1.085       .  S
C1870      C1871   1.413       .  A
C1871      C1872   1.409       .  A
C1871      C1875   1.517       .  S
C1872      H1876   1.083       .  S
C1873      F1886   1.383       .  S
C1873      F1887   1.383       .  S
C1873      F1888   1.382       .  S
C1875      F1883   1.383       .  S
C1875      F1884   1.383       .  S
C1875      F1885   1.384       .  S
