geometry optimzed in LAMMPS
_audit_creation_date              2020-12-01 
_audit_creation_method            'lammps2cif' 
_symmetry_space_group_name_H-M    'P1' 
_symmetry_Int_Tables_number       1 
_symmetry_cell_setting            triclinic 
loop_ 
_symmetry_equiv_pos_as_xyz 
  x,y,z 
_cell_length_a                    42.23084548 
_cell_length_b                    42.20781117816504 
_cell_length_c                    64.72853019844045 
_cell_angle_alpha                 90.12282299742716 
_cell_angle_beta                  90.36663199475254 
_cell_angle_gamma                 89.87351483933203 
loop_ 
_atom_site_label 
_atom_site_type_symbol 
_atom_site_fract_x 
_atom_site_fract_y 
_atom_site_fract_z 
_atom_site_charge 
O1          O  0.42731685  0.03572256  0.69998151    -0.85600
O2          O  0.37976298  0.03955492  0.72743409    -0.82600
C3          C  0.39505554  0.03881911  0.74440563     0.97900
O4          O  0.41054164  0.06248617  0.75071637    -0.82700
O5          O  0.44186678  0.12055684  0.74886551    -0.85300
C6          C  0.46915311  0.11295597  0.74277460     1.02400
O7          O  0.47264763  0.10119461  0.72508575    -0.78100
O8          O  0.45995523  0.07211791  0.68850672    -0.78300
C9          C  0.45408493  0.04337935  0.69309733     1.02400
O10         O  0.39676569  0.07869451  0.67229175    -0.85600
O11         O  0.34985211  0.08875373  0.70231095    -0.82600
C12         C  0.33820440  0.09561157  0.71970414     0.97900
O13         O  0.35451517  0.09203379  0.73586198    -0.82700
O14         O  0.38701373  0.14472826  0.72796318    -0.85300
C15         C  0.40762696  0.16449327  0.72312751     1.02400
O16         O  0.43323186  0.15559592  0.71458082    -0.78100
O17         O  0.41789342  0.12524443  0.67780551    -0.78200
C18         C  0.40471079  0.10576158  0.66578456     1.02300
Cr19       Cr  0.38969333  0.06293059  0.70125852     1.93700
Cr20       Cr  0.39960363  0.10413053  0.73910311     1.93200
Cr21       Cr  0.44348465  0.11217587  0.70217450     1.39100
O22         O  0.41139042  0.09277525  0.71410113    -1.23300
O23         O  0.07740580  0.44820681  0.69345054    -0.85600
O24         O  0.10859769  0.46328320  0.72850755    -0.82600
C25         C  0.12017053  0.46179160  0.74637665     0.97900
O26         O  0.12427415  0.43514116  0.75501300    -0.82700
O27         O  0.06841403  0.39761326  0.75714472    -0.85300
C28         C  0.04689428  0.37853098  0.75169804     1.02400
O29         O  0.04786121  0.36586515  0.73402950    -0.78100
O30         O  0.04141792  0.41871530  0.70856256    -0.78300
C31         C  0.04893044  0.44393178  0.69922149     1.02400
O32         O  0.12966374  0.40515831  0.68262825    -0.85600
O33         O  0.16245052  0.42425294  0.71792559    -0.82600
C34         C  0.17339072  0.40066448  0.72782398     0.97900
O35         O  0.15525721  0.38166942  0.73676665    -0.82700
O36         O  0.10452771  0.34450597  0.74059849    -0.85300
C37         C  0.10580731  0.32951799  0.72356923     1.02400
O38         O  0.09503475  0.34160894  0.70710205    -0.78100
O39         O  0.08089386  0.38938942  0.67891325    -0.78200
C40         C  0.10781840  0.39443043  0.67131665     1.02300
Cr41       Cr  0.11827078  0.43268093  0.70661991     1.93700
Cr42       Cr  0.11179521  0.39089147  0.74553900     1.93200
Cr43       Cr  0.06860705  0.38043523  0.70806420     1.39100
O44         O  0.09979170  0.40152929  0.72015646    -1.23300
O45         O  0.18039967  0.21451172  0.79312448    -0.85600
O46         O  0.13154287  0.21033439  0.76503256    -0.82600
C47         C  0.14637545  0.20980052  0.74814135     0.97900
O48         O  0.16243633  0.18588141  0.74298809    -0.82700
O49         O  0.19361144  0.12783375  0.74659551    -0.85300
C50         C  0.22069724  0.13445057  0.75358080     1.02400
O51         O  0.22390047  0.14506718  0.77165488    -0.78100
O52         O  0.21015355  0.17733863  0.80699897    -0.78300
C53         C  0.20624064  0.20599467  0.80148034     1.02400
O54         O  0.14603696  0.17487025  0.82105684    -0.85600
O55         O  0.10045846  0.16430219  0.79065114    -0.82600
C56         C  0.08903161  0.15505195  0.77356461     0.97900
O57         O  0.10565246  0.15606745  0.75745269    -0.82700
O58         O  0.13864149  0.10255033  0.76518924    -0.85300
C59         C  0.15750720  0.08352971  0.77371746     1.02400
O60         O  0.18208066  0.09327162  0.78323048    -0.78100
O61         O  0.16622073  0.12721242  0.81845121    -0.78200
C62         C  0.15182499  0.14804722  0.82876913     1.02300
Cr63       Cr  0.14116158  0.18855925  0.79170080     1.93700
Cr64       Cr  0.15117834  0.14421468  0.75507575     1.93200
Cr65       Cr  0.19305004  0.13715872  0.79406982     1.39100
O66         O  0.16198123  0.15651938  0.78040095    -1.23300
O67         O  0.33444974  0.28917828  0.79545626    -0.85600
O68         O  0.39222893  0.29102004  0.77336197    -0.82600
C69         C  0.37845228  0.28621246  0.75655790     0.97900
O70         O  0.35943011  0.30640592  0.74986010    -0.82700
O71         O  0.32119031  0.35758761  0.74769582    -0.85300
C72         C  0.29736180  0.36872716  0.75683646     1.02400
O73         O  0.29759448  0.37391916  0.77597203    -0.78100
O74         O  0.30460771  0.32928371  0.80699406    -0.78300
C75         C  0.30808816  0.29983077  0.80208671     1.02400
O76         O  0.36284897  0.32251804  0.82640057    -0.85600
O77         O  0.41422546  0.33815756  0.79907404    -0.82600
C78         C  0.42716526  0.34685342  0.78227444     0.97900
O79         O  0.41195161  0.34706823  0.76508341    -0.82700
O80         O  0.37178137  0.39633796  0.76133549    -0.85300
C81         C  0.36653931  0.41660412  0.77506866     1.02400
O82         O  0.35005755  0.41015429  0.79080207    -0.78100
O83         O  0.35556143  0.37253396  0.82387511    -0.78200
C84         C  0.36118835  0.34895613  0.83487130     1.02300
Cr85       Cr  0.37438342  0.31317994  0.79748795     1.93700
Cr86       Cr  0.36527382  0.35117866  0.75813962     1.93200
Cr87       Cr  0.32896908  0.36924641  0.79839848     1.39100
O88         O  0.35567044  0.34506400  0.78445977    -1.23300
O89         O  0.32424055  0.04621125  0.06017484    -0.85600
O90         O  0.35474068  0.03162428  0.02454557    -0.82600
C91         C  0.36263162  0.03474254  0.00595937     0.97900
O92         O  0.36669144  0.06194979  0.99833962    -0.82700
O93         O  0.31083227  0.09795590  0.99836774    -0.85300
C94         C  0.28992090  0.11720282  0.00432065     1.02400
O95         O  0.29244178  0.13044275  0.02172608    -0.78100
O96         O  0.28757345  0.07758298  0.04689365    -0.78300
C97         C  0.29528769  0.05152150  0.05523791     1.02400
O98         O  0.37755007  0.08974918  0.07072858    -0.85600
O99         O  0.40818309  0.07210741  0.03425101    -0.82600
C100        C  0.41728528  0.09569748  0.02359395     0.97900
O101        O  0.39782806  0.11516360  0.01638145    -0.82700
O102        O  0.34688198  0.15140844  0.01357312    -0.85300
C103        C  0.35077225  0.16627346  0.03041124     1.02400
O104        O  0.34212362  0.15417408  0.04735297    -0.78100
O105        O  0.32919771  0.10577035  0.07567704    -0.78200
C106        C  0.35682559  0.10135828  0.08244295     1.02300
Cr107      Cr  0.36479347  0.06249949  0.04665265     1.93700
Cr108      Cr  0.35455909  0.10537016  0.00853859     1.93200
Cr109      Cr  0.31507356  0.11545562  0.04700751     1.39100
O110        O  0.34493210  0.09401634  0.03398563    -1.23300
O111        O  0.16875627  0.46271850  0.04857210    -0.85600
O112        O  0.12048270  0.45960832  0.02000979    -0.82600
C113        C  0.13556789  0.46229729  0.00324120     0.97900
O114        O  0.15566029  0.44138717  0.99825085    -0.82700
O115        O  0.18961857  0.38307131  0.99933840    -0.85300
C116        C  0.21539277  0.38479821  0.00915412     1.02400
O117        O  0.21612423  0.39480192  0.02734115    -0.78100
O118        O  0.19920409  0.42530111  0.06182345    -0.78300
C119        C  0.19477078  0.45426055  0.05676300     1.02400
O120        O  0.13686551  0.42034052  0.07507198    -0.85600
O121        O  0.09250195  0.40807480  0.04282850    -0.82600
C122        C  0.08340830  0.40029836  0.02478599     0.97900
O123        O  0.10036738  0.40711632  0.00948555    -0.82700
O124        O  0.13428635  0.35358214  0.01379170    -0.85300
C125        C  0.14976035  0.33323631  0.02384870     1.02400
O126        O  0.17322124  0.34164042  0.03505553    -0.78100
O127        O  0.15422573  0.37265598  0.06978197    -0.78200
C128        C  0.14320047  0.39305293  0.08183158     1.02300
Cr129      Cr  0.13104101  0.43542202  0.04582760     1.93700
Cr130      Cr  0.14603775  0.39722085  0.00714194     1.93200
Cr131      Cr  0.18339717  0.38514742  0.04749423     1.39100
O132        O  0.15398760  0.40586670  0.03345310    -1.23300
O133        O  0.42427468  0.29123365  0.94341146    -0.85600
O134        O  0.40141050  0.27996346  0.98196208    -0.82600
C135        C  0.39225880  0.28400386  0.00022482     0.97900
O136        O  0.38484575  0.31136297  0.00643556    -0.82700
O137        O  0.44141709  0.34549995  0.00468670    -0.85300
C138        C  0.46355488  0.36119931  0.99670691     1.02400
O139        O  0.46008831  0.37460823  0.97936028    -0.78100
O140        O  0.46212401  0.32400752  0.95265406    -0.78300
C141        C  0.45352267  0.29722069  0.94577904     1.02400
O142        O  0.36981859  0.33129289  0.93529388    -0.85600
O143        O  0.34494044  0.31696930  0.97298216    -0.82600
C144        C  0.33524448  0.34288875  0.98062491     0.97900
O145        O  0.35418175  0.36359810  0.98703859    -0.82700
O146        O  0.40694972  0.39922313  0.99017419    -0.85300
C147        C  0.40162756  0.41432451  0.97372737     1.02400
O148        O  0.40780911  0.40173685  0.95644167    -0.78100
O149        O  0.41478471  0.35354439  0.92726385    -0.78200
C150        C  0.38730820  0.34455051  0.92226468     1.02300
Cr151      Cr  0.38660092  0.30744877  0.95920081     1.93700
Cr152      Cr  0.39763421  0.35371267  0.99516333     1.93200
Cr153      Cr  0.43412029  0.36204991  0.95495130     1.39100
O154        O  0.40620515  0.34083140  0.96968715    -1.23300
O155        O  0.07792422  0.20240012  0.93689321    -0.85600
O156        O  0.10426210  0.21494467  0.97441864    -0.82600
C157        C  0.11247095  0.21114213  0.99295396     0.97900
O158        O  0.11707583  0.18359608  0.99998478    -0.82700
O159        O  0.06020429  0.14711144  0.99733318    -0.85300
C160        C  0.03916524  0.12957023  0.98923557     1.02400
O161        O  0.04406322  0.11696676  0.97181508    -0.78100
O162        O  0.04093625  0.16907599  0.94653098    -0.78300
C163        C  0.04890598  0.19635005  0.94033303     1.02400
O164        O  0.13263843  0.16139104  0.92768883    -0.85600
O165        O  0.15907280  0.17607660  0.96509370    -0.82600
C166        C  0.16862420  0.15091321  0.97386690     0.97900
O167        O  0.14941268  0.13160260  0.98159417    -0.82700
O168        O  0.09760677  0.09471344  0.98306255    -0.85300
C169        C  0.10152127  0.07923863  0.96652498     1.02400
O170        O  0.09633868  0.09216624  0.94913667    -0.78100
O171        O  0.08692591  0.14094825  0.91983338    -0.78200
C172        C  0.11464520  0.14842732  0.91464517     1.02300
Cr173      Cr  0.11688780  0.18600319  0.95183350     1.93700
Cr174      Cr  0.10521063  0.14065029  0.98850909     1.93200
Cr175      Cr  0.06934912  0.13144161  0.94784416     1.39100
O176        O  0.09719465  0.15301315  0.96275971    -1.23300
O177        O  0.42811246  0.21461611  0.54946261    -0.85600
O178        O  0.37976726  0.21459046  0.52183511    -0.82600
C179        C  0.39162853  0.21901739  0.50423523     0.97900
O180        O  0.41087490  0.19900340  0.49694313    -0.82700
O181        O  0.44534976  0.14181527  0.49390277    -0.85300
C182        C  0.47226012  0.14582439  0.50179793     1.02400
O183        O  0.47505861  0.15255870  0.52060696    -0.78100
O184        O  0.46197261  0.17723550  0.55802583    -0.78300
C185        C  0.45540056  0.20647613  0.55564403     1.02400
O186        O  0.39715501  0.16723397  0.57339051    -0.85600
O187        O  0.35062231  0.16171329  0.54148204    -0.82600
C188        C  0.33947989  0.15923180  0.52325913     0.97900
O189        O  0.35738424  0.16278219  0.50798726    -0.82700
O190        O  0.39250025  0.10975467  0.50946606    -0.85300
C191        C  0.41125907  0.08941666  0.51672891     1.02400
O192        O  0.43503369  0.09739205  0.52775105    -0.78100
O193        O  0.42035665  0.12274224  0.56574586    -0.78200
C194        C  0.40639448  0.13998104  0.57869958     1.02300
Cr195      Cr  0.39066470  0.18711495  0.54557618     1.93700
Cr196      Cr  0.40280529  0.15400911  0.50437123     1.93200
Cr197      Cr  0.44536391  0.13906375  0.54217953     1.39100
O198        O  0.41312465  0.15984763  0.53081577    -1.23300
O199        O  0.33044353  0.45449921  0.43494025    -0.85600
O200        O  0.35701563  0.46893854  0.47138961    -0.82600
C201        C  0.36790528  0.46786606  0.48939909     0.97900
O202        O  0.37011451  0.44138147  0.49843538    -0.82700
O203        O  0.31141925  0.40494690  0.49719887    -0.85300
C204        C  0.29118423  0.38530547  0.49022711     1.02400
O205        O  0.29540117  0.37297138  0.47267928    -0.78100
O206        O  0.29316711  0.42287645  0.44639122    -0.78300
C207        C  0.30145633  0.44930169  0.43911595     1.02400
O208        O  0.38431446  0.41142294  0.42736916    -0.85600
O209        O  0.41186117  0.42849746  0.46377669    -0.82600
C210        C  0.42060433  0.40410566  0.47385435     0.97900
O211        O  0.40062316  0.38664255  0.48247582    -0.82700
O212        O  0.34830162  0.35187131  0.48422909    -0.85300
C213        C  0.35199231  0.33509449  0.46817357     1.02400
O214        O  0.34739026  0.34658355  0.45035866    -0.78100
O215        O  0.33752435  0.39340111  0.42000941    -0.78200
C216        C  0.36536580  0.39959483  0.41454265     1.02300
Cr217      Cr  0.36946654  0.43851094  0.45023682     1.93700
Cr218      Cr  0.35663381  0.39756950  0.48865901     2.01200
Cr219      Cr  0.32067622  0.38550810  0.44830578     1.39100
O220        O  0.34901724  0.40748882  0.46245651    -1.23300
O221        O  0.17827221  0.03497194  0.45402993    -0.85600
O222        O  0.12995817  0.03859252  0.48203660    -0.82600
C223        C  0.14609047  0.03836586  0.49856849     0.97900
O224        O  0.16195317  0.06222290  0.50397743    -0.82700
O225        O  0.19243966  0.12017636  0.50105256    -0.85300
C226        C  0.21920967  0.11574781  0.49308297     1.02400
O227        O  0.22166748  0.10472934  0.47506964    -0.78100
O228        O  0.20695764  0.07239317  0.43965915    -0.78300
C229        C  0.20290113  0.04341861  0.44450281     1.02400
O230        O  0.14446613  0.07409152  0.42632402    -0.85600
O231        O  0.09915792  0.08573322  0.45617321    -0.82600
C232        C  0.08856684  0.09533822  0.47328056     0.97900
O233        O  0.10479449  0.09161581  0.48952307    -0.82700
O234        O  0.13659582  0.14571887  0.48290458    -0.85300
C235        C  0.15478208  0.16514567  0.47448199     1.02400
O236        O  0.17913888  0.15591548  0.46469156    -0.78100
O237        O  0.16150312  0.12258014  0.42918440    -0.78200
C238        C  0.14836041  0.10115799  0.41859368     1.02300
Cr239      Cr  0.13927676  0.06066940  0.45548685     1.93700
Cr240      Cr  0.14992771  0.10391816  0.49248321     1.93200
Cr241      Cr  0.18996375  0.11243933  0.45311575     1.39100
O242        O  0.16016285  0.09238304  0.46701125    -1.23300
O243        O  0.07949732  0.30129734  0.56142503    -0.85600
O244        O  0.12108799  0.28412328  0.53027772    -0.82600
C245        C  0.12008181  0.28358861  0.51083135     0.97900
O246        O  0.11302057  0.30777984  0.50048889    -0.82700
O247        O  0.06145482  0.34764862  0.50050814    -0.85300
C248        C  0.04241017  0.36933748  0.50531919     1.02400
O249        O  0.04819452  0.38560167  0.52112111    -0.78100
O250        O  0.04273209  0.33354391  0.54825812    -0.78300
C251        C  0.05056494  0.30714959  0.55638711     1.02400
O252        O  0.12902650  0.34855997  0.57443782    -0.85600
O253        O  0.16429079  0.33305554  0.54153447    -0.82600
C254        C  0.17256918  0.34900630  0.52594075     0.97900
O255        O  0.15301756  0.35807522  0.51241720    -0.82700
O256        O  0.10460192  0.39980050  0.51136084    -0.85300
C257        C  0.10997964  0.41673195  0.52725288     1.02400
O258        O  0.09974207  0.40825047  0.54485904    -0.78100
O259        O  0.08103977  0.36507357  0.57625524    -0.78200
C260        C  0.10756449  0.36158495  0.58460466     1.02300
Cr261      Cr  0.12125561  0.31913841  0.55070939     1.93700
Cr262      Cr  0.10715958  0.35270620  0.50842755     1.93200
Cr263      Cr  0.07061405  0.37108521  0.54667033     1.39100
O264        O  0.10015209  0.34695020  0.53515963    -1.23300
O265        O  0.43573495  0.45807080  0.30632059    -0.85600
O266        O  0.40864365  0.46902531  0.26900659    -0.82600
C267        C  0.39904073  0.46476211  0.25082927     0.97900
O268        O  0.39298951  0.43720011  0.24443462    -0.82700
O269        O  0.45086454  0.40388020  0.24564357    -0.85300
C270        C  0.47263099  0.38599725  0.25236692     1.02400
O271        O  0.47090700  0.37398276  0.27023260    -0.78100
O272        O  0.47338367  0.42544040  0.29628649    -0.78300
C273        C  0.46487529  0.45226195  0.30304439     1.02400
O274        O  0.38265889  0.41601153  0.31590530    -0.85600
O275        O  0.35406575  0.42935379  0.27925033    -0.82600
C276        C  0.34473848  0.40323072  0.27148002     0.97900
O277        O  0.36439173  0.38422992  0.26378122    -0.82700
O278        O  0.41788779  0.35011298  0.26050944    -0.85300
C279        C  0.41553537  0.33442024  0.27697849     1.02400
O280        O  0.42059446  0.34739724  0.29431342    -0.78100
O281        O  0.42897940  0.39612559  0.32322566    -0.78200
C282        C  0.40115568  0.40309675  0.32860688     1.02300
Cr283      Cr  0.39680747  0.44063397  0.29182762     1.93700
Cr284      Cr  0.40739368  0.39520696  0.25549232     1.93200
Cr285      Cr  0.44619582  0.38727994  0.29506447     1.39100
O286        O  0.41683508  0.40798376  0.28084009    -1.23300
O287        O  0.18793951  0.30134448  0.19005967    -0.85600
O288        O  0.15708112  0.28717948  0.22557244    -0.82600
C289        C  0.14748292  0.29027103  0.24382906     0.97900
O290        O  0.14077762  0.31734408  0.25086488    -0.82700
O291        O  0.19741415  0.35259167  0.25250868    -0.85300
C292        C  0.21965984  0.37038832  0.24665262     1.02400
O293        O  0.21788338  0.38449330  0.22952741    -0.78100
O294        O  0.22405370  0.33297072  0.20337046    -0.78300
C295        C  0.21646619  0.30642595  0.19561089     1.02400
O296        O  0.13513776  0.34289066  0.17844644    -0.85600
O297        O  0.10344207  0.32655639  0.21364249    -0.82600
C298        C  0.09286467  0.35149620  0.22221277     0.97900
O299        O  0.11108489  0.37036986  0.23145569    -0.82700
O300        O  0.16259431  0.40640038  0.23703989    -0.85300
C301        C  0.15984292  0.42197066  0.22047064     1.02400
O302        O  0.16918306  0.41022987  0.20354198    -0.78100
O303        O  0.18213360  0.36329519  0.17450610    -0.78200
C304        C  0.15491093  0.35728064  0.16747424     1.02300
Cr305      Cr  0.14731199  0.31703644  0.20289702     1.93700
Cr306      Cr  0.15405264  0.36048353  0.24107499     1.93200
Cr307      Cr  0.19602303  0.37106818  0.20357061     1.39100
O308        O  0.16566688  0.34927417  0.21581835    -1.23300
O309        O  0.08762369  0.03776010  0.29405020    -0.85600
O310        O  0.13884347  0.04037952  0.26783908    -0.82600
C311        C  0.12416644  0.04003588  0.25079526     0.97900
O312        O  0.10649014  0.06287219  0.24584816    -0.82700
O313        O  0.07486456  0.12100093  0.24780089    -0.85300
C314        C  0.04832434  0.11993356  0.25662499     1.02400
O315        O  0.04612717  0.11150414  0.27513970    -0.78100
O316        O  0.05923283  0.07567749  0.30860175    -0.78300
C317        C  0.06245213  0.04681826  0.30279349     1.02400
O318        O  0.11992589  0.07453952  0.32363783    -0.85600
O319        O  0.16730780  0.08651759  0.29453396    -0.82600
C320        C  0.17944384  0.09452598  0.27753601     0.97900
O321        O  0.16337702  0.09401394  0.26091880    -0.82700
O322        O  0.13067276  0.14766211  0.26526815    -0.85300
C323        C  0.11536368  0.16790738  0.27538178     1.02400
O324        O  0.09184284  0.15967405  0.28633172    -0.78100
O325        O  0.10728686  0.12417986  0.32062579    -0.78200
C326        C  0.11666425  0.10154856  0.33161198     1.02300
Cr327      Cr  0.12705079  0.06239654  0.29417423     1.93700
Cr328      Cr  0.11769012  0.10532579  0.25691723     1.93200
Cr329      Cr  0.07850730  0.11614062  0.29666625     1.39100
O330        O  0.10731844  0.09486807  0.28250492    -1.23300
O331        O  0.33584407  0.20451395  0.19139143    -0.85600
O332        O  0.37884724  0.21769646  0.22284980    -0.82600
C333        C  0.37580079  0.21813399  0.24222893     0.97900
O334        O  0.36601795  0.19456394  0.25208145    -0.82700
O335        O  0.31569918  0.15539727  0.25126025    -0.85300
C336        C  0.29676615  0.13403474  0.24617123     1.02400
O337        O  0.30127895  0.11957187  0.22959300    -0.78100
O338        O  0.29730774  0.17495210  0.20476664    -0.78300
C339        C  0.30680663  0.20087128  0.19684851     1.02400
O340        O  0.38232629  0.15375329  0.17767008    -0.85600
O341        O  0.41934766  0.16760342  0.21107630    -0.82600
C342        C  0.42707716  0.15397214  0.22778363     0.97900
O343        O  0.40677170  0.14511094  0.24068458    -0.82700
O344        O  0.35860365  0.10315515  0.23898071    -0.85300
C345        C  0.36040032  0.08659504  0.22252721     1.02400
O346        O  0.34978057  0.09673828  0.20526290    -0.78100
O347        O  0.33272682  0.14411357  0.17542199    -0.78200
C348        C  0.35950861  0.14276827  0.16750241     1.02300
Cr349      Cr  0.37683056  0.18367952  0.20172393     1.93700
Cr350      Cr  0.36091617  0.15006481  0.24347286     1.93200
Cr351      Cr  0.32300570  0.13568831  0.20472400     1.39100
O352        O  0.35425272  0.15697519  0.21681687    -1.23300
C353        C  0.01913931  0.13125324  0.24632073    -0.00400
C354        C  0.49955570  0.14774952  0.26159134    -0.12300
C355        C  0.46985922  0.15680880  0.25437947     0.01800
C356        C  0.46059103  0.14956127  0.23389660    -0.00500
C357        C  0.48275563  0.13563292  0.22050748    -0.12200
C358        C  0.01010089  0.12318438  0.22593467     0.01700
H359        H  0.00582077  0.15683430  0.27383323     0.14700
H360        H  0.47595700  0.13035721  0.20469463     0.14700
C361        C  0.03021977  0.10392984  0.21306056     0.36400
C362        C  0.44919349  0.17333434  0.26855923     0.36300
N363        N  0.04634564  0.08844097  0.20274247    -0.44000
N364        N  0.43271144  0.18646398  0.27996356    -0.44000
C365        C  0.21293787  0.10285217  0.27603221    -0.00400
C366        C  0.22170083  0.13481016  0.27795365    -0.12300
C367        C  0.25046296  0.14555509  0.26980882     0.01800
C368        C  0.27031577  0.12399674  0.25935371    -0.00500
C369        C  0.26270492  0.09160223  0.25929352    -0.12200
C370        C  0.23427892  0.08093546  0.26752845     0.01700
H371        H  0.20511789  0.15168346  0.28447046     0.14700
H372        H  0.27827947  0.07471941  0.25176843     0.14700
C373        C  0.22645199  0.04772209  0.26576352     0.36400
C374        C  0.25776203  0.17892083  0.27088190     0.36300
N375        N  0.22023843  0.02110605  0.26439931    -0.44000
N376        N  0.26380590  0.20561773  0.27184576    -0.44000
C377        C  0.24055872  0.28024435  0.19359613    -0.00400
C378        C  0.22977104  0.24883630  0.19142509    -0.12300
C379        C  0.25069165  0.22287413  0.19199786     0.01800
C380        C  0.28371935  0.22773750  0.19427151    -0.00500
C381        C  0.29472709  0.25916253  0.19540594    -0.12200
C382        C  0.27370309  0.28515974  0.19525453     0.01700
H383        H  0.20457448  0.24427606  0.19012759     0.14700
H384        H  0.31990705  0.26349669  0.19715628     0.14700
C385        C  0.28704007  0.31652640  0.19691961     0.36400
C386        C  0.23732720  0.19149376  0.19033163     0.36300
N387        N  0.29782587  0.34163460  0.19827531    -0.44000
N388        N  0.22653730  0.16637413  0.18907807    -0.44000
C389        C  0.14237376  0.26148771  0.25647699    -0.00400
C390        C  0.11380962  0.25767869  0.26729801    -0.12300
C391        C  0.10510432  0.22795275  0.27535905     0.01800
C392        C  0.12540140  0.20157479  0.27271037    -0.00500
C393        C  0.15554551  0.20678471  0.26413097    -0.12200
C394        C  0.16396041  0.23607081  0.25591656     0.01700
H395        H  0.09732881  0.27735722  0.26825138     0.14700
H396        H  0.17218180  0.18731702  0.26266877     0.14700
C397        C  0.19472395  0.23903925  0.24655004     0.36400
C398        C  0.07464536  0.22493514  0.28511051     0.36300
N399        N  0.21949163  0.24100522  0.23915744    -0.44000
N400        N  0.05027727  0.22260996  0.29303844    -0.44000
C401        C  0.14602792  0.45401592  0.22204256    -0.00400
C402        C  0.11683717  0.45696094  0.23220249    -0.12300
C403        C  0.10666861  0.48617170  0.23998032     0.01800
C404        C  0.12958294  0.01315415  0.23678110    -0.00500
C405        C  0.15898238  0.01083219  0.22681371    -0.12200
C406        C  0.16393482  0.48142434  0.21812609     0.01700
H407        H  0.10302066  0.43595414  0.23539445     0.14700
H408        H  0.17475998  0.03108341  0.22682939     0.14700
C409        C  0.19386585  0.47953530  0.20756197     0.36400
C410        C  0.07730652  0.48771630  0.25125973     0.36300
N411        N  0.21780436  0.47789161  0.19902144    -0.44000
N412        N  0.05365479  0.48902184  0.26014886    -0.44000
C413        C  0.48920459  0.47765743  0.30619920    -0.00400
C414        C  0.48596247  0.00204571  0.31239408    -0.12300
C415        C  0.00441219  0.02996750  0.30665756     0.01800
C416        C  0.03710613  0.02259719  0.30624945    -0.00500
C417        C  0.04388857  0.49304898  0.30961175    -0.12200
C418        C  0.02118298  0.46883318  0.30930159     0.01700
H419        H  0.46170575  0.00751235  0.31649382     0.14700
H420        H  0.06874090  0.48661618  0.31054692     0.14700
C421        C  0.03224829  0.43655172  0.31111667     0.36400
C422        C  0.49822386  0.05800727  0.31860005     0.36300
N423        N  0.04117804  0.41071117  0.31262285    -0.44000
N424        N  0.48977311  0.08307356  0.32334785    -0.44000
C425        C  0.05861123  0.35839770  0.22314861    -0.00400
C426        C  0.04851467  0.39007518  0.22096691    -0.12300
C427        C  0.51807055  0.39823220  0.22863721     0.01800
C428        C  0.49935324  0.37629047  0.23931213    -0.00500
C429        C  0.00759060  0.34552436  0.23770291    -0.12200
C430        C  0.03704389  0.33564426  0.23034502     0.01700
H431        H  0.06473670  0.40756829  0.21491681     0.14700
H432        H  0.99213490  0.32825834  0.24476645     0.14700
C433        C  0.04558525  0.30261963  0.23227730     0.36400
C434        C  0.50882779  0.43105480  0.22694422     0.36300
N435        N  0.05227614  0.27611338  0.23375669    -0.44000
N436        N  0.50097060  0.45723937  0.22551705    -0.44000
C437        C  0.31059656  0.39443980  0.27014186    -0.00400
C438        C  0.30307727  0.36249470  0.26591951    -0.12300
C439        C  0.27236020  0.35331367  0.26042381     0.01800
C440        C  0.24822245  0.37617814  0.25923884    -0.00500
C441        C  0.25488558  0.40755786  0.26511856    -0.12200
C442        C  0.28568308  0.41685064  0.27070182     0.01700
H443        H  0.32166444  0.34475269  0.26563381     0.14700
H444        H  0.23637572  0.42534764  0.26392293     0.14700
C445        C  0.29122933  0.44988754  0.27521967     0.36400
C446        C  0.26707225  0.32101964  0.25391661     0.36300
N447        N  0.29557010  0.47639651  0.27883675    -0.44000
N448        N  0.26316743  0.29512563  0.24862255    -0.44000
C449        C  0.39144209  0.49258348  0.23794720    -0.00400
C450        C  0.36185702  0.49364334  0.22785252    -0.12300
C451        C  0.35860798  0.02691082  0.21959835     0.01800
C452        C  0.37487020  0.05495260  0.22472130    -0.00500
C453        C  0.40337071  0.05300480  0.23595714    -0.12200
C454        C  0.41434502  0.02407521  0.24366150     0.01700
H455        H  0.34706116  0.47266815  0.22748421     0.14700
H456        H  0.41624301  0.07452313  0.23969409     0.14700
C457        C  0.44345267  0.02382654  0.25552895     0.36400
C458        C  0.32899653  0.02772372  0.20837746     0.36300
N459        N  0.46683851  0.02377956  0.26494792    -0.44000
N460        N  0.30517758  0.02825907  0.19945157    -0.44000
C461        C  0.40869870  0.30059146  0.27446485    -0.00400
C462        C  0.42857545  0.28420617  0.26090282    -0.12300
C463        C  0.41809179  0.25736602  0.25044523     0.01800
C464        C  0.38719136  0.24592845  0.25383651    -0.00500
C465        C  0.36838999  0.26022908  0.26910992    -0.12200
C466        C  0.37885575  0.28779028  0.27930362     0.01700
H467        H  0.45157683  0.29392915  0.25721169     0.14700
H468        H  0.34505814  0.25082889  0.27231208     0.14700
C469        C  0.35795346  0.30368354  0.29352799     0.36400
C470        C  0.43952427  0.24239706  0.23606333     0.36300
N471        N  0.34126893  0.31641709  0.30499394    -0.44000
N472        N  0.45688599  0.23066639  0.22457732    -0.44000
C473        C  0.13775378  0.10604106  0.39678822    -0.00400
C474        C  0.11470257  0.08513509  0.38895775    -0.12300
C475        C  0.10684789  0.08440310  0.36799910     0.01800
C476        C  0.12169264  0.10528478  0.35415600    -0.00500
C477        C  0.14307399  0.12788146  0.36197933    -0.12200
C478        C  0.15140996  0.12827901  0.38312876     0.01700
H479        H  0.10329234  0.06841181  0.39919573     0.14700
H480        H  0.15450100  0.14408431  0.35141325     0.14700
C481        C  0.17540257  0.15024530  0.39002090     0.36400
C482        C  0.08354879  0.06162693  0.36107504     0.36300
N483        N  0.19472085  0.16781238  0.39551264    -0.44000
N484        N  0.06490702  0.04331056  0.35563919    -0.44000
C485        C  0.14899326  0.19875082  0.47913848    -0.00400
C486        C  0.16897240  0.21289121  0.49378873    -0.12300
C487        C  0.15959894  0.24023452  0.50435396     0.01800
C488        C  0.13001707  0.25450333  0.49986720    -0.00500
C489        C  0.11093644  0.24161868  0.48414345    -0.12200
C490        C  0.11989921  0.21349623  0.47409208     0.01700
H491        H  0.19097406  0.20122664  0.49809616     0.14700
H492        H  0.08850112  0.25278078  0.48032528     0.14700
C493        C  0.09855723  0.19962118  0.45910844     0.36400
C494        C  0.18070062  0.25289722  0.51995140     0.36300
N495        N  0.08143506  0.18850897  0.44710266    -0.44000
N496        N  0.19764009  0.26283581  0.53249376    -0.44000
C497        C  0.14558905  0.00943089  0.51091012    -0.00400
C498        C  0.15804980  0.48112782  0.50180643    -0.12300
C499        C  0.14820581  0.45098395  0.50748635     0.01800
C500        C  0.12683477  0.44717059  0.52416337    -0.00500
C501        C  0.11931521  0.47379603  0.53631856    -0.12200
C502        C  0.12572510  0.00610739  0.52816737     0.01700
H503        H  0.17220302  0.48404054  0.48799164     0.14700
H504        H  0.10372708  0.47123749  0.54945051     0.14700
C505        C  0.11226433  0.03353691  0.53818872     0.36400
C506        C  0.15930750  0.42506234  0.49483247     0.36300
N507        N  0.10162572  0.05563775  0.54619014    -0.44000
N508        N  0.16875126  0.40527643  0.48409110    -0.44000
C509        C  0.37468588  0.39565818  0.39264641    -0.00400
C510        C  0.35108871  0.39776693  0.37730825    -0.12300
C511        C  0.35887018  0.39895992  0.35634179     0.01800
C512        C  0.39103521  0.39788558  0.35030103    -0.00500
C513        C  0.41442655  0.39347445  0.36561393    -0.12200
C514        C  0.40659317  0.39241487  0.38658439     0.01700
H515        H  0.32642853  0.39983874  0.38171524     0.14700
H516        H  0.43915511  0.39194560  0.36130149     0.14700
C517        C  0.43180456  0.38803451  0.40150769     0.36400
C518        C  0.33323487  0.40162722  0.34153732     0.36300
N519        N  0.45193719  0.38450705  0.41350570    -0.44000
N520        N  0.31265163  0.40380946  0.32972566    -0.44000
C521        C  0.27652204  0.47418975  0.43640359    -0.00400
C522        C  0.24463471  0.46473031  0.43749340    -0.12300
C523        C  0.22008992  0.48679317  0.43954206     0.01800
C524        C  0.22751851  0.01913981  0.43932306    -0.00500
C525        C  0.25916196  0.02858402  0.43650354    -0.12200
C526        C  0.28374700  0.00618320  0.43452472     0.01700
H527        H  0.23877204  0.43972126  0.43760058     0.14700
H528        H  0.26500518  0.05358831  0.43678057     0.14700
C529        C  0.31572762  0.01779762  0.43268850     0.36400
C530        C  0.18817238  0.47476633  0.44108021     0.36300
N531        N  0.34131311  0.02723185  0.43113702    -0.44000
N532        N  0.16267150  0.46500608  0.44237402    -0.44000
C533        C  0.26324774  0.37398885  0.50229469    -0.00400
C534        C  0.25026395  0.39238663  0.51835171    -0.12300
C535        C  0.22164218  0.38340031  0.52786076     0.01800
C536        C  0.20617648  0.35529041  0.52167490    -0.00500
C537        C  0.22014496  0.33598000  0.50684771    -0.12200
C538        C  0.24802791  0.34484462  0.49708386     0.01700
H539        H  0.26149042  0.41449322  0.52273302     0.14700
H540        H  0.20793147  0.31466798  0.50181863     0.14700
C541        C  0.25901262  0.32372145  0.48101937     0.36400
C542        C  0.20773008  0.40391203  0.54319433     0.36300
N543        N  0.26714212  0.30675749  0.46800685    -0.44000
N544        N  0.19650323  0.42020261  0.55556022    -0.44000
C545        C  0.45452375  0.39575238  0.47690195    -0.00400
C546        C  0.46265423  0.36345019  0.47891545    -0.12300
C547        C  0.99182639  0.35397860  0.48657155     0.01800
C548        C  0.01387124  0.37716626  0.49279399    -0.00500
C549        C  0.00653910  0.40933579  0.48944009    -0.12200
C550        C  0.47784781  0.41879990  0.48103007     0.01700
H551        H  0.44499403  0.34545365  0.47570703     0.14700
H552        H  0.02343278  0.42736068  0.49408961     0.14700
C553        C  0.47108864  0.45225126  0.47933190     0.36400
C554        C  0.99778200  0.32066289  0.48990538     0.36300
N555        N  0.46561431  0.47905046  0.47797677    -0.44000
N556        N  0.00249060  0.29396355  0.49261740    -0.44000
C557        C  0.47984058  0.23205172  0.55915279    -0.00400
C558        C  0.47075157  0.26379585  0.55585594    -0.12300
C559        C  0.49281471  0.28862987  0.55572288     0.01800
C560        C  0.02558213  0.28215251  0.55945552    -0.00500
C561        C  0.03467720  0.25075086  0.56405869    -0.12200
C562        C  0.01251372  0.22576482  0.56431889     0.01700
H563        H  0.44610819  0.26942341  0.55276351     0.14700
H564        H  0.05945815  0.24535460  0.56680678     0.14700
C565        C  0.02404759  0.19431894  0.56888772     0.36400
C566        C  0.48070815  0.32021375  0.55218606     0.36300
N567        N  0.03339397  0.16916758  0.57263472    -0.44000
N568        N  0.47087303  0.34546445  0.54936160    -0.44000
C569        C  0.50099046  0.13922548  0.48972074    -0.00400
C570        C  0.00090764  0.11242128  0.47600796    -0.12300
C571        C  0.02920567  0.09917939  0.46867964     0.01800
C572        C  0.05822773  0.11215457  0.47520508    -0.00500
C573        C  0.05832872  0.14011045  0.48699426    -0.12200
C574        C  0.03030466  0.15352292  0.49405436     0.01700
H575        H  0.47882064  0.10251352  0.47132236     0.14700
H576        H  0.08049487  0.15066347  0.49179155     0.14700
C577        C  0.53125853  0.18265392  0.50695725     0.36400
C578        C  0.02795655  0.07062916  0.45638594     0.36300
N579        N  0.53251193  0.20593324  0.51639480    -0.44000
N580        N  0.02694394  0.04772209  0.44654640    -0.44000
C581        C  0.30573646  0.15262303  0.51830861    -0.00400
C582        C  0.28803539  0.13133971  0.53031373    -0.12300
C583        C  0.25898572  0.11922181  0.52285867     0.01800
C584        C  0.24774313  0.12844401  0.50318780    -0.00500
C585        C  0.26420164  0.15113787  0.49202917    -0.12200
C586        C  0.29266724  0.16330955  0.49923057     0.01700
H587        H  0.29771673  0.12272724  0.54480691     0.14700
H588        H  0.25499371  0.15894493  0.47716898     0.14700
C589        C  0.30835713  0.18543790  0.48571487     0.36400
C590        C  0.24225760  0.09599859  0.53489196     0.36300
N591        N  0.32039566  0.20255000  0.47425915    -0.44000
N592        N  0.22883868  0.07730928  0.54450653    -0.44000
C593        C  0.38090544  0.49787096  0.49824345    -0.00400
C594        C  0.39038992  0.02058966  0.48256790    -0.12300
C595        C  0.40244135  0.04961290  0.48900161     0.01800
C596        C  0.40563995  0.05634722  0.51024415    -0.00500
C597        C  0.39802925  0.03278264  0.52469306    -0.12200
C598        C  0.38594882  0.00322959  0.51812061     0.01700
H599        H  0.38538644  0.51787301  0.46757749     0.14700
H600        H  0.40004735  0.03798400  0.54105524     0.14700
C601        C  0.38176764  0.47929450  0.53478757     0.36400
C602        C  0.41063256  0.07247097  0.47330229     0.36300
N603        N  0.37734532  0.46009058  0.54716448    -0.44000
N604        N  0.41690391  0.09059777  0.46058645    -0.44000
C605        C  0.37956735  0.24624245  0.49203784    -0.00400
C606        C  0.39687992  0.25858172  0.47534652    -0.12300
C607        C  0.38667276  0.28636151  0.46523108     0.01800
C608        C  0.35866274  0.30148584  0.47172553    -0.00500
C609        C  0.34012366  0.28742934  0.48687833    -0.12200
C610        C  0.35012892  0.26053823  0.49717182     0.01700
H611        H  0.41904134  0.24756370  0.47092143     0.14700
H612        H  0.31873710  0.29921200  0.49203965     0.14700
C613        C  0.32942205  0.24912568  0.51326740     0.36400
C614        C  0.40618553  0.30007525  0.44938681     0.36300
N615        N  0.31267337  0.24028807  0.52610514    -0.44000
N616        N  0.42173280  0.31107654  0.43662092    -0.44000
C617        C  0.47746569  0.27176488  0.94110569    -0.00400
C618        C  0.46738189  0.23997234  0.94013437    -0.12300
C619        C  0.99141097  0.21595323  0.93773617     0.01800
C620        C  0.02439081  0.22213360  0.93813031    -0.00500
C621        C  0.03411623  0.25406262  0.93835605    -0.12200
C622        C  0.01212432  0.27914046  0.93969501     0.01700
H623        H  0.44237624  0.23456927  0.94138605     0.14700
H624        H  0.05917690  0.25958889  0.93820631     0.14700
C625        C  0.02416944  0.31111914  0.93934585     0.36400
C626        C  0.97915840  0.18419693  0.93557399     0.36300
N627        N  0.03388409  0.33672545  0.93887485    -0.44000
N628        N  0.46628735  0.15758489  0.93627037    -0.44000
C629        C  0.14705127  0.36715554  0.14609098    -0.00400
C630        C  0.15548016  0.39782138  0.13988877    -0.12300
C631        C  0.15231320  0.40739161  0.11927501     0.01800
C632        C  0.14106513  0.38578803  0.10421473    -0.00500
C633        C  0.13163406  0.35538549  0.11054344    -0.12200
C634        C  0.13411854  0.34610049  0.13133680     0.01700
H635        H  0.16539897  0.41415725  0.15115280     0.14700
H636        H  0.12313949  0.33855219  0.09911287     0.14700
C637        C  0.12530947  0.31421835  0.13687587     0.36400
C638        C  0.16315136  0.43870083  0.11380688     0.36300
N639        N  0.11826727  0.28867260  0.14136575    -0.44000
N640        N  0.17187326  0.46376385  0.10942346    -0.44000
C641        C  0.05311302  0.38409712  0.02056501    -0.00400
C642        C  0.02673581  0.38987927  0.03315872    -0.12300
C643        C  0.49765917  0.38222194  0.02566350     0.01800
C644        C  0.49414135  0.36526696  0.00701366    -0.00500
C645        C  0.01964762  0.35390465  0.99708086    -0.12200
C646        C  0.04934428  0.36510722  0.00253632     0.01700
H647        H  0.02927402  0.40445706  0.04688051     0.14700
H648        H  0.01672019  0.34063559  0.98280345     0.14700
C649        C  0.07463268  0.35834707  0.98819786     0.36400
C650        C  0.47051173  0.39080731  0.03790819     0.36300
N651        N  0.09436967  0.35275195  0.97640025    -0.44000
N652        N  0.44867839  0.39790625  0.04760432    -0.44000
C653        C  0.24463158  0.37167195  0.00046727    -0.00400
C654        C  0.25383064  0.37915154  0.98027277    -0.12300
C655        C  0.28282916  0.36808129  0.97262222     0.01800
C656        C  0.30186018  0.34810125  0.98496213    -0.00500
C657        C  0.29168784  0.33912508  0.00454460    -0.12200
C658        C  0.26365608  0.35111535  0.01254667     0.01700
H659        H  0.23923078  0.39480847  0.97095180     0.14700
H660        H  0.30684017  0.32442442  0.01419148     0.14700
C661        C  0.25562874  0.34273947  0.03351646     0.36400
C662        C  0.29335983  0.37857352  0.95260098     0.36300
N663        N  0.24938732  0.33644914  0.05039983    -0.44000
N664        N  0.30188546  0.38699325  0.93657126    -0.44000
C665        C  0.11923837  0.23960650  0.00578177    -0.00400
C666        C  0.14938394  0.24317072  0.01488829    -0.12300
C667        C  0.15980689  0.27286493  0.02232586     0.01800
C668        C  0.13938932  0.29944861  0.02125949    -0.00500
C669        C  0.10785773  0.29430837  0.01477887    -0.12200
C670        C  0.09799883  0.26528238  0.00651102     0.01700
H671        H  0.16565693  0.22327094  0.01483583     0.14700
H672        H  0.09102914  0.31362257  0.01525207     0.14700
C673        C  0.06616772  0.26274620  0.99836679     0.36400
C674        C  0.19191743  0.27533590  0.02978649     0.36300
N675        N  0.04065249  0.26088125  0.99185373    -0.44000
N676        N  0.21775482  0.27635062  0.03578367    -0.44000
C677        C  0.12638468  0.48854771  0.98917251    -0.00400
C678        C  0.09420725  0.49715580  0.98849106    -0.12300
C679        C  0.08736582  0.02393010  0.97603026     0.01800
C680        C  0.11018843  0.04544931  0.96878381    -0.00500
C681        C  0.14242381  0.03708262  0.97013826    -0.12200
C682        C  0.15203363  0.00883095  0.97994469     0.01700
H683        H  0.07685471  0.48277204  0.99642802     0.14700
H684        H  0.16013973  0.05367483  0.96493251     0.14700
C685        C  0.18528976  0.00220472  0.98265607     0.36400
C686        C  0.05395043  0.03123049  0.97485299     0.36300
N687        N  0.21171447  0.99596749  0.98515266    -0.44000
N688        N  0.02719648  0.03708698  0.97386724    -0.44000
C689        C  0.36294271  0.10810696  0.10458989    -0.00400
C690        C  0.34165786  0.09532253  0.11877635    -0.12300
C691        C  0.34146757  0.10513078  0.13938483     0.01800
C692        C  0.36286825  0.12872333  0.14640093    -0.00500
C693        C  0.38567687  0.14016298  0.13246972    -0.12200
C694        C  0.38573824  0.13012313  0.11161983     0.01700
H695        H  0.32421115  0.07821262  0.11350552     0.14700
H696        H  0.40231435  0.15813122  0.13754612     0.14700
C697        C  0.40766451  0.14438522  0.09739853     0.36400
C698        C  0.31843915  0.09073338  0.15283288     0.36300
N699        N  0.42510694  0.15577842  0.08588254    -0.44000
N700        N  0.29981368  0.07925227  0.16348474    -0.44000
C701        C  0.22021772  0.47891893  0.05970557    -0.00400
C702        C  0.21444455  0.01039120  0.05905331    -0.12300
C703        C  0.23735732  0.03447424  0.05878195     0.01800
C704        C  0.27010686  0.02686943  0.05883864    -0.00500
C705        C  0.27582586  0.49562793  0.06238199    -0.12200
C706        C  0.25261574  0.47159931  0.06323617     0.01700
H707        H  0.18963310  0.01701916  0.05833570     0.14700
H708        H  0.30052905  0.48920064  0.06435753     0.14700
C709        C  0.26316002  0.43950157  0.06672648     0.36400
C710        C  0.22619299  0.06684324  0.05853967     0.36300
N711        N  0.27168423  0.41377705  0.06951865    -0.44000
N712        N  0.21711284  0.09273483  0.05842105    -0.44000
C713        C  0.20269254  0.14398319  0.97639033    -0.00400
C714        C  0.21267777  0.11215300  0.97538853    -0.12300
C715        C  0.24270242  0.10311046  0.98251270     0.01800
C716        C  0.26275152  0.12602225  0.99126002    -0.00500
C717        C  0.25406073  0.15814014  0.99044945    -0.12200
C718        C  0.22442523  0.16736457  0.98282381     0.01700
H719        H  0.19642780  0.09414556  0.96995423     0.14700
H720        H  0.26987538  0.17593769  0.99682671     0.14700
C721        C  0.21622055  0.20057579  0.98339283     0.36400
C722        C  0.25167432  0.07012044  0.98223996     0.36300
N723        N  0.21002137  0.22728989  0.98374346    -0.44000
N724        N  0.25991475  0.04397247  0.98210090    -0.44000
C725        C  0.00845209  0.12191790  0.99925359    -0.00400
C726        C  0.48382691  0.11024819  0.98695497    -0.12300
C727        C  0.45534886  0.09950800  0.99484168     0.01800
C728        C  0.45007916  0.09972563  0.01635591    -0.00500
C729        C  0.47415020  0.11095966  0.02957284    -0.12200
C730        C  0.00357497  0.12010879  0.02084601     0.01700
H731        H  0.48683281  0.11008841  0.97031408     0.14700
H732        H  0.46985530  0.11235519  0.04604606     0.14700
C733        C  0.02858399  0.12751383  0.03531852     0.36400
C734        C  0.43134240  0.08981618  0.98010692     0.36300
N735        N  0.04866324  0.13335854  0.04695514    -0.44000
N736        N  0.41259673  0.08256572  0.96787356    -0.44000
C737        C  0.36992933  0.00595992  0.99369322    -0.00400
C738        C  0.39430452  0.50337855  0.97957964    -0.12300
C739        C  0.40466619  0.47414344  0.97150427     0.01800
C740        C  0.38762222  0.44631552  0.97584657    -0.00500
C741        C  0.35914743  0.44868664  0.98681738    -0.12200
C742        C  0.34888834  0.47764242  0.99496320     0.01700
H743        H  0.41587800  0.02332842  0.98481798     0.14700
H744        H  0.34576330  0.42740099  0.99011420     0.14700
C745        C  0.31844617  0.98090593  0.00247310     0.36400
C746        C  0.43430363  0.47275309  0.96056735     0.36300
N747        N  0.29328587  0.98210472  0.00941660    -0.44000
N748        N  0.45810591  0.47151919  0.95183865    -0.44000
C749        C  0.38678175  0.25602511  0.01343575    -0.00400
C750        C  0.35886408  0.25466483  0.02517595    -0.12300
C751        C  0.34795049  0.22570125  0.03298852     0.01800
C752        C  0.36534953  0.19783916  0.02921939    -0.00500
C753        C  0.39499546  0.19991162  0.01962770    -0.12200
C754        C  0.40591354  0.22871121  0.01183764     0.01700
H755        H  0.34411680  0.27560406  0.02666716     0.14700
H756        H  0.40874502  0.17855900  0.01700692     0.14700
C757        C  0.43622022  0.22938043  0.00159372     0.36400
C758        C  0.31739956  0.22456867  0.04282217     0.36300
N759        N  0.46056089  0.22997105  0.99348561    -0.44000
N760        N  0.29288636  0.22356380  0.05067947    -0.44000
C761        C  0.36474083  0.35101543  0.85758231    -0.00400
C762        C  0.35367680  0.32541879  0.86931261    -0.12300
C763        C  0.35935190  0.32363608  0.89054476     0.01800
C764        C  0.37668792  0.34784481  0.90054695    -0.00500
C765        C  0.38671525  0.37414089  0.88899403    -0.12200
C766        C  0.38064322  0.37606452  0.86768477     0.01700
H767        H  0.34119308  0.30615012  0.86171740     0.14700
H768        H  0.40001748  0.39287123  0.89655082     0.14700
C769        C  0.39263494  0.40294742  0.85644998     0.36400
C770        C  0.34915671  0.29547253  0.90124976     0.36300
N771        N  0.40227377  0.42456103  0.84751483    -0.44000
N772        N  0.34104542  0.27282908  0.90974851    -0.44000
C773        C  0.14216634  0.14220081  0.85040202    -0.00400
C774        C  0.16540209  0.13998099  0.86593798    -0.12300
C775        C  0.15712690  0.14086405  0.88697283     0.01800
C776        C  0.12493622  0.14380745  0.89276900    -0.00500
C777        C  0.10170871  0.14384478  0.87707521    -0.12200
C778        C  0.11002846  0.14333300  0.85613564     0.01700
H779        H  0.19017039  0.13901299  0.86164214     0.14700
H780        H  0.07688483  0.14561393  0.88111993     0.14700
C781        C  0.08507405  0.14436601  0.84078771     0.36400
C782        C  0.18215000  0.13874572  0.90221247     0.36300
N783        N  0.06486130  0.14503054  0.82863807    -0.44000
N784        N  0.20221564  0.13698333  0.91442268    -0.44000
C785        C  0.23229988  0.22991029  0.80441007    -0.00400
C786        C  0.22513862  0.26245510  0.80270291    -0.12300
C787        C  0.24903578  0.28568228  0.80240295     0.01800
C788        C  0.28125528  0.27681428  0.80429305    -0.00500
C789        C  0.28834516  0.24443812  0.80690523    -0.12200
C790        C  0.26455896  0.22117482  0.80692771     0.01700
H791        H  0.20070221  0.26983530  0.80068944     0.14700
H792        H  0.31286418  0.23702582  0.80841137     0.14700
C793        C  0.27452931  0.18848165  0.80830485     0.36400
C794        C  0.23974616  0.31807037  0.79853208     0.36300
N795        N  0.28280779  0.16236491  0.80930094    -0.44000
N796        N  0.23213784  0.34394620  0.79526485    -0.44000
C797        C  0.11210934  0.37265395  0.60636396    -0.00400
C798        C  0.08998448  0.39452336  0.61408996    -0.12300
C799        C  0.08963236  0.40306641  0.63491117     0.01800
C800        C  0.11188715  0.38988355  0.64878150    -0.00500
C801        C  0.13563335  0.36982490  0.64102421    -0.12200
C802        C  0.13594050  0.36109426  0.61995695     0.01700
H803        H  0.07214437  0.40455715  0.60388305     0.14700
H804        H  0.15293705  0.35972874  0.65158157     0.14700
C805        C  0.15991795  0.33914213  0.61306948     0.36400
C806        C  0.06578593  0.42534451  0.64166654     0.36300
N807        N  0.17922424  0.32157537  0.60760139    -0.44000
N808        N  0.04662404  0.44321717  0.64691396    -0.44000
C809        C  0.46131722  0.35385066  0.78144123    -0.00400
C810        C  0.48089193  0.33034974  0.77319310    -0.12300
C811        C  0.01064194  0.33721288  0.76630304     0.01800
C812        C  0.02062604  0.36919067  0.76555761    -0.00500
C813        C  0.00212421  0.39234113  0.77541144    -0.12200
C814        C  0.47320604  0.38489206  0.78376233     0.01700
H815        H  0.47207729  0.30630715  0.77171423     0.14700
H816        H  0.00984940  0.41682141  0.77545018     0.14700
C817        C  0.45464630  0.40919464  0.79369892     0.36400
C818        C  0.03044133  0.31168345  0.75893883     0.36300
N819        N  0.43991386  0.42862921  0.80185649    -0.44000
N820        N  0.04628420  0.29100361  0.75337281    -0.44000
C821        C  0.26853910  0.37796081  0.74526184    -0.00400
C822        C  0.25655445  0.40848348  0.74879713    -0.12300
C823        C  0.22660709  0.41743256  0.74157438     0.01800
C824        C  0.20782846  0.39552969  0.73053299    -0.00500
C825        C  0.22059804  0.36549056  0.72590824    -0.12200
C826        C  0.25091377  0.35668415  0.73298800     0.01700
H827        H  0.27012302  0.42499308  0.75818640     0.14700
H828        H  0.20622051  0.34834594  0.71761955     0.14700
C829        C  0.26234911  0.32509133  0.72880365     0.36400
C830        C  0.21482701  0.44805014  0.74775301     0.36300
N831        N  0.27154601  0.29978016  0.72538861    -0.44000
N832        N  0.20649655  0.47273356  0.75328624    -0.44000
C833        C  0.11991620  0.29760614  0.72364272    -0.00400
C834        C  0.15016533  0.29408086  0.73245781    -0.12300
C835        C  0.16182990  0.26411434  0.73763601     0.01800
C836        C  0.14264062  0.23731879  0.73457243    -0.00500
C837        C  0.11387277  0.24046543  0.72376793    -0.12200
C838        C  0.10257750  0.27043013  0.71796414     0.01700
H839        H  0.16395730  0.31491605  0.73637125     0.14700
H840        H  0.09893504  0.21984556  0.72152246     0.14700
C841        C  0.07179076  0.27282215  0.70827562     0.36400
C842        C  0.19254732  0.26162477  0.74739105     0.36300
N843        N  0.04706620  0.27462085  0.70054922    -0.44000
N844        N  0.21741630  0.25972729  0.75488135    -0.44000
C845        C  0.13226611  0.49173888  0.75561873    -0.00400
C846        C  0.12700303  0.49980965  0.77644909    -0.12300
C847        C  0.13866469  0.02823355  0.78304924     0.01800
C848        C  0.15246402  0.04978512  0.76913467    -0.00500
C849        C  0.15616801  0.04108840  0.74847833    -0.12200
C850        C  0.14527916  0.01209483  0.74117088     0.01700
H851        H  0.11404850  0.48365974  0.78625731     0.14700
H852        H  0.16644552  0.05780927  0.73770636     0.14700
C853        C  0.14965861  0.00535980  0.71943947     0.36400
C854        C  0.13291014  0.03723803  0.80420700     0.36300
N855        N  0.15301365  0.99996153  0.70205155    -0.44000
N856        N  0.12816909  0.04468881  0.82112631    -0.44000
C857        C  0.40090023  0.11372147  0.64350266    -0.00400
C858        C  0.40922099  0.09092402  0.62866394    -0.12300
C859        C  0.41016590  0.09835342  0.60752292     0.01800
C860        C  0.40232244  0.12933420  0.60066591    -0.00500
C861        C  0.39215849  0.15155210  0.61556498    -0.12200
C862        C  0.39148854  0.14407995  0.63671408     0.01700
H863        H  0.41630793  0.06743535  0.63369134     0.14700
H864        H  0.38545501  0.17526243  0.61080911     0.14700
C865        C  0.38046033  0.16778882  0.65111678     0.36400
C866        C  0.41986844  0.07364480  0.59344839     0.36300
N867        N  0.37140250  0.18668689  0.66265147    -0.44000
N868        N  0.42772059  0.05372965  0.58226847    -0.44000
C869        C  0.47855734  0.01785554  0.69124400    -0.00400
C870        C  0.46937857  0.48743272  0.69288985    -0.12300
C871        C  0.99165240  0.46244074  0.69506361     0.01800
C872        C  0.02449364  0.46895232  0.69511149    -0.00500
C873        C  0.03284690  0.99921393  0.69339490    -0.12200
C874        C  0.01102000  0.02427011  0.69170845     0.01700
H875        H  0.44440101  0.48166530  0.69369009     0.14700
H876        H  0.05795523  0.00456207  0.69375407     0.14700
C877        C  0.02327669  0.05614473  0.69082656     0.36400
C878        C  0.47956510  0.43080162  0.69606157     0.36300
N879        N  0.03320214  0.08166094  0.69019967    -0.44000
N880        N  0.47001687  0.40519656  0.69727133    -0.44000
C881        C  0.39401826  0.00961911  0.75639406    -0.00400
C882        C  0.41134147  0.48355598  0.75003000    -0.12300
C883        C  0.40444249  0.45323876  0.75692551     0.01800
C884        C  0.37974634  0.44858981  0.77149836    -0.00500
C885        C  0.36551534  0.47523155  0.78063917    -0.12200
C886        C  0.37470991  0.00630928  0.77391245     0.01700
H887        H  0.42847696  0.48679866  0.73777120     0.14700
H888        H  0.34718253  0.47217842  0.79210961     0.14700
C889        C  0.36089922  0.03361934  0.78387042     0.36400
C890        C  0.42224010  0.42753175  0.74777980     0.36300
N891        N  0.34994959  0.05555886  0.79188066    -0.44000
N892        N  0.43642682  0.40707880  0.74028719    -0.44000
C893        C  0.38424800  0.25611471  0.74618688    -0.00400
C894        C  0.38179925  0.22938398  0.75862954    -0.12300
C895        C  0.39113362  0.20001185  0.75148225     0.01800
C896        C  0.40246559  0.19662818  0.73105016    -0.00500
C897        C  0.40527918  0.22346006  0.71841453    -0.12200
C898        C  0.39632532  0.25343993  0.72597171     0.01700
H899        H  0.37319333  0.23164344  0.77435104     0.14700
H900        H  0.41394767  0.22094973  0.70276539     0.14700
C901        C  0.40097390  0.28108250  0.71327290     0.36400
C902        C  0.38934598  0.17380710  0.76582328     0.36300
N903        N  0.40484943  0.30333370  0.70318899    -0.44000
N904        N  0.38776345  0.15295362  0.77734716    -0.44000
C905        C  0.05655257  0.14238681  0.77148879    -0.00400
C906        C  0.05325295  0.11126652  0.76407929    -0.12300
C907        C  0.52404027  0.10060707  0.75588236     0.01800
C908        C  0.49744363  0.12083026  0.75532464    -0.00500
C909        C  0.00021954  0.15080601  0.76523797    -0.12200
C910        C  0.02949678  0.16184042  0.77286305     0.01700
H911        H  0.07389211  0.09598498  0.76325375     0.14700
H912        H  0.97996377  0.16665221  0.76505834     0.14700
C913        C  0.03185188  0.19396175  0.78039372     0.36400
C914        C  0.52238791  0.06831329  0.74851809     0.36300
N915        N  0.03387971  0.21969985  0.78645013    -0.44000
N916        N  0.52105972  0.04232827  0.74284066    -0.44000
C917        C  0.30594584  0.10799309  0.72230899    -0.00400
C918        C  0.30298357  0.13857273  0.73067729    -0.12300
C919        C  0.27490504  0.14835447  0.74012427     0.01800
C920        C  0.24895883  0.12743767  0.74099969    -0.00500
C921        C  0.25110149  0.09777288  0.73113593    -0.12200
C922        C  0.27956796  0.08770024  0.72217398     0.01700
H923        H  0.32340951  0.15410772  0.73110267     0.14700
H924        H  0.23131076  0.08147495  0.73184918     0.14700
C925        C  0.28228881  0.05537220  0.71506678     0.36400
C926        C  0.27366769  0.17960427  0.74922804     0.36300
N927        N  0.28470207  0.02937619  0.70957106    -0.44000
N928        N  0.27289824  0.20471114  0.75642700    -0.44000
O929        O  0.42758089  0.53661101  0.70055332    -0.85600
O930        O  0.38046283  0.53948967  0.72855859    -0.82600
C931        C  0.39610169  0.53845483  0.74537954     0.97900
O932        O  0.41214967  0.56175806  0.75156081    -0.82700
O933        O  0.44330212  0.61969960  0.75038140    -0.85300
C934        C  0.47044037  0.61254210  0.74387338     1.02400
O935        O  0.47347124  0.60139716  0.72599004    -0.78100
O936        O  0.45981613  0.57341833  0.68921803    -0.78300
C937        C  0.45417910  0.54455064  0.69348167     1.02400
O938        O  0.39621283  0.58028391  0.67368408    -0.85600
O939        O  0.34977825  0.58925308  0.70444591    -0.82600
C940        C  0.33865757  0.59573055  0.72207522     0.97900
O941        O  0.35549908  0.59178347  0.73798574    -0.82700
O942        O  0.38790546  0.64515911  0.73116906    -0.85300
C943        C  0.40824142  0.66479005  0.72558559     1.02400
O944        O  0.43341471  0.65587043  0.71650688    -0.78100
O945        O  0.41771404  0.62652052  0.67956510    -0.78200
C946        C  0.40456540  0.60734341  0.66733505     1.02300
Cr947      Cr  0.38979446  0.56366935  0.70257397     1.93700
Cr948      Cr  0.40075396  0.60376180  0.74092762     1.93200
Cr949      Cr  0.44361555  0.61292363  0.70355621     1.39100
O950        O  0.41170566  0.59331390  0.71554824    -1.23300
O951        O  0.07515955  0.94630247  0.69384322    -0.85600
O952        O  0.10526074  0.96102896  0.72904800    -0.82600
C953        C  0.11828893  0.96008322  0.74645558     0.97900
O954        O  0.12333927  0.93363514  0.75512427    -0.82700
O955        O  0.06675744  0.89721433  0.75803950    -0.85300
C956        C  0.04474703  0.87853664  0.75282209     1.02400
O957        O  0.04519913  0.86552930  0.73522384    -0.78100
O958        O  0.03910822  0.91761664  0.70945663    -0.78300
C959        C  0.04679995  0.94250945  0.69987896     1.02400
O960        O  0.12708392  0.90335243  0.68328692    -0.85600
O961        O  0.16002157  0.92259125  0.71863637    -0.82600
C962        C  0.17106145  0.89870528  0.72822262     0.97900
O963        O  0.15283869  0.87940596  0.73682447    -0.82700
O964        O  0.10139098  0.84325402  0.74152844    -0.85300
C965        C  0.10268700  0.82816710  0.72454772     1.02400
O966        O  0.09171302  0.84003351  0.70808303    -0.78100
O967        O  0.07817212  0.88761308  0.67971798    -0.78200
C968        C  0.10505783  0.89279870  0.67203354     1.02300
Cr969      Cr  0.11575243  0.93088344  0.70718871     1.93700
Cr970      Cr  0.10975822  0.88946826  0.74609823     1.93200
Cr971      Cr  0.06579515  0.87912091  0.70897516     1.39100
O972        O  0.09737106  0.89988195  0.72077509    -1.23300
O973        O  0.17867325  0.71645978  0.79469899    -0.85600
O974        O  0.13077268  0.71097172  0.76617047    -0.82600
C975        C  0.14595431  0.71016102  0.74941753     0.97900
O976        O  0.16261282  0.68643157  0.74471372    -0.82700
O977        O  0.19415260  0.62866395  0.74917579    -0.85300
C978        C  0.22105605  0.63558414  0.75635566     1.02400
O979        O  0.22370977  0.64676614  0.77433655    -0.78100
O980        O  0.20844975  0.67989743  0.80923337    -0.78300
C981        C  0.20427380  0.70847429  0.80353117     1.02400
O982        O  0.14434245  0.67696788  0.82260030    -0.85600
O983        O  0.09980159  0.66517331  0.79192791    -0.82600
C984        C  0.08893249  0.65566196  0.77478355     0.97900
O985        O  0.10587029  0.65667815  0.75883337    -0.82700
O986        O  0.13874216  0.60343874  0.76741919    -0.85300
C987        C  0.15764230  0.58465870  0.77612504     1.02400
O988        O  0.18196808  0.59481360  0.78576977    -0.78100
O989        O  0.16467467  0.62934983  0.82047945    -0.78200
C990        C  0.14969422  0.65015773  0.83045313     1.02300
Cr991      Cr  0.13998923  0.68996318  0.79311793     1.93700
Cr992      Cr  0.15138591  0.64496391  0.75702599     1.93200
Cr993      Cr  0.19224389  0.63910766  0.79644902     1.39100
O994        O  0.16145008  0.65794396  0.78229901    -1.23300
O995        O  0.33171068  0.79152312  0.79858244    -0.85600
O996        O  0.39014942  0.79139625  0.77703984    -0.82600
C997        C  0.37678229  0.78540872  0.76026914     0.97900
O998        O  0.35742164  0.80496109  0.75317785    -0.82700
O999        O  0.31831546  0.85516999  0.74984363    -0.85300
C1000       C  0.29535115  0.86896162  0.75839969     1.02400
O1001       O  0.29653686  0.87707257  0.77710700    -0.78100
O1002       O  0.30188319  0.83268804  0.80873094    -0.78300
C1003       C  0.30525744  0.80291978  0.80453070     1.02400
O1004       O  0.35993336  0.82546487  0.82912404    -0.85600
O1005       O  0.41190839  0.83967042  0.80147074    -0.82600
C1006       C  0.42478457  0.84776604  0.78448134     0.97900
O1007       O  0.40949543  0.84753438  0.76728045    -0.82700
O1008       O  0.36833784  0.89616669  0.76168262    -0.85300
C1009       C  0.36493857  0.91715550  0.77524907     1.02400
O1010       O  0.35010242  0.91160375  0.79180129    -0.78100
O1011       O  0.35372810  0.87545486  0.82556658    -0.78200
C1012       C  0.35903506  0.85232026  0.83700997     1.02300
Cr1013     Cr  0.37184962  0.81498550  0.80039936     1.93700
Cr1014     Cr  0.36270488  0.85047003  0.76012899     1.93200
Cr1015     Cr  0.32744318  0.87185424  0.79990448     1.39100
O1016       O  0.35354236  0.84631318  0.78660512    -1.23300
O1017       O  0.32249861  0.54547056  0.05885768    -0.85600
O1018       O  0.35362986  0.53118609  0.02336189    -0.82600
C1019       C  0.36161031  0.53421442  0.00478396     0.97900
O1020       O  0.36664349  0.56141018  0.99739065    -0.82700
O1021       O  0.31064554  0.59713071  0.99718310    -0.85300
C1022       C  0.28945616  0.61611787  0.00308588     1.02400
O1023       O  0.29184173  0.62978474  0.02036721    -0.78100
O1024       O  0.28636956  0.57746055  0.04564375    -0.78300
C1025       C  0.29359580  0.55133056  0.05401518     1.02400
O1026       O  0.37590973  0.58829808  0.06997820    -0.85600
O1027       O  0.40728782  0.57150099  0.03383519    -0.82600
C1028       C  0.41659285  0.59550575  0.02361908     0.97900
O1029       O  0.39714097  0.61478273  0.01616283    -0.82700
O1030       O  0.34612691  0.65075593  0.01258256    -0.85300
C1031       C  0.34991604  0.66565990  0.02940096     1.02400
O1032       O  0.34124625  0.65358845  0.04633214    -0.78100
O1033       O  0.32777322  0.60527453  0.07463639    -0.78200
C1034       C  0.35511581  0.59988362  0.08160481     1.02300
Cr1035     Cr  0.36347724  0.56165296  0.04569994     1.93700
Cr1036     Cr  0.35416306  0.60476921  0.00768878     1.93200
Cr1037     Cr  0.31408784  0.61501124  0.04586150     1.39100
O1038       O  0.34401327  0.59338522  0.03303279    -1.23300
O1039       O  0.17137744  0.96264025  0.04802204    -0.85600
O1040       O  0.12244215  0.95999545  0.01958884    -0.82600
C1041       C  0.13757520  0.96224788  0.00282314     0.97900
O1042       O  0.15726423  0.94088769  0.99788976    -0.82700
O1043       O  0.19059468  0.88181156  0.99923598    -0.85300
C1044       C  0.21635090  0.88321886  0.00915144     1.02400
O1045       O  0.21706411  0.89399244  0.02713578    -0.78100
O1046       O  0.20103570  0.92478964  0.06155912    -0.78300
C1047       C  0.19714083  0.95379414  0.05641046     1.02400
O1048       O  0.13885711  0.92108374  0.07478387    -0.85600
O1049       O  0.09408939  0.90920707  0.04291796    -0.82600
C1050       C  0.08463302  0.90107646  0.02502849     0.97900
O1051       O  0.10145412  0.90740123  0.00953517    -0.82700
O1052       O  0.13469682  0.85349955  0.01386776    -0.85300
C1053       C  0.15011076  0.83310631  0.02390924     1.02400
O1054       O  0.17369383  0.84139653  0.03503827    -0.78100
O1055       O  0.15507456  0.87292313  0.06968382    -0.78200
C1056       C  0.14431451  0.89364663  0.08160191     1.02300
Cr1057     Cr  0.13305661  0.93596799  0.04552175     1.93700
Cr1058     Cr  0.14708706  0.89689034  0.00701798     1.93200
Cr1059     Cr  0.18444671  0.88481353  0.04735615     1.39100
O1060       O  0.15533279  0.90580808  0.03325718    -1.23300
O1061       O  0.42681648  0.79305103  0.94402936    -0.85600
O1062       O  0.40379254  0.78012709  0.98236093    -0.82600
C1063       C  0.39413129  0.78352934  0.00056781     0.97900
O1064       O  0.38701781  0.81072249  0.00724512    -0.82700
O1065       O  0.44338668  0.84515838  0.00638458    -0.85300
C1066       C  0.46564874  0.86101798  0.99871665     1.02400
O1067       O  0.46240036  0.87487298  0.98148278    -0.78100
O1068       O  0.46454004  0.82507801  0.95437978    -0.78300
C1069       C  0.45600495  0.79860831  0.94706181     1.02400
O1070       O  0.37221101  0.83362763  0.93684658    -0.85600
O1071       O  0.34739798  0.81710161  0.97394517    -0.82600
C1072       C  0.33745644  0.84257404  0.98202408     0.97900
O1073       O  0.35618704  0.86335723  0.98863886    -0.82700
O1074       O  0.40881419  0.89930179  0.99229126    -0.85300
C1075       C  0.40425673  0.91481453  0.97589739     1.02400
O1076       O  0.41049814  0.90252718  0.95854684    -0.78100
O1077       O  0.41734823  0.85516966  0.92877595    -0.78200
C1078       C  0.38949874  0.84707871  0.92382282     1.02300
Cr1079     Cr  0.38907212  0.80849171  0.96008385     1.93700
Cr1080     Cr  0.39969388  0.85352957  0.99672916     1.93200
Cr1081     Cr  0.43663344  0.86296831  0.95676294     1.39100
O1082       O  0.40855547  0.84145027  0.97114864    -1.23300
O1083       O  0.07641576  0.70148250  0.93809782    -0.85600
O1084       O  0.10374695  0.71452095  0.97521528    -0.82600
C1085       C  0.11192919  0.71083396  0.99376478     0.97900
O1086       O  0.11603770  0.68332017  0.00100931    -0.82700
O1087       O  0.05893583  0.64711874  0.99885772    -0.85300
C1088       C  0.03783520  0.62949203  0.99093575     1.02400
O1089       O  0.04258369  0.61671157  0.97356852    -0.78100
O1090       O  0.03926393  0.66904233  0.94869633    -0.78300
C1091       C  0.04746941  0.69602601  0.94218667     1.02400
O1092       O  0.13053910  0.65942305  0.92892155    -0.85600
O1093       O  0.15778571  0.67473853  0.96578734    -0.82600
C1094       C  0.16710844  0.64957031  0.97463704     0.97900
O1095       O  0.14775032  0.63080579  0.98273348    -0.82700
O1096       O  0.09587065  0.59445083  0.98420179    -0.85300
C1097       C  0.09912048  0.57902561  0.96755189     1.02400
O1098       O  0.09394748  0.59207990  0.95022778    -0.78100
O1099       O  0.08389573  0.64109093  0.92126380    -0.78200
C1100       C  0.11179821  0.64747194  0.91595283     1.02300
Cr1101     Cr  0.11554422  0.68496722  0.95281228     1.93700
Cr1102     Cr  0.10378034  0.64030272  0.98978285     1.93200
Cr1103     Cr  0.06720273  0.63131282  0.94941778     1.39100
O1104       O  0.09556061  0.65254402  0.96408343    -1.23300
O1105       O  0.42889553  0.71517676  0.55086503    -0.85600
O1106       O  0.38092580  0.71584735  0.52295478    -0.82600
C1107       C  0.39293048  0.71978673  0.50532412     0.97900
O1108       O  0.41207836  0.69945341  0.49828041    -0.82700
O1109       O  0.44556620  0.64153336  0.49580347    -0.85300
C1110       C  0.47253649  0.64521388  0.50367757     1.02400
O1111       O  0.47546405  0.65273638  0.52235104    -0.78100
O1112       O  0.46187326  0.67723664  0.55988156    -0.78300
C1113       C  0.45581172  0.70654767  0.55741709     1.02400
O1114       O  0.39737214  0.66832375  0.57465033    -0.85600
O1115       O  0.35082158  0.66338520  0.54268365    -0.82600
C1116       C  0.33984516  0.66092364  0.52442059     0.97900
O1117       O  0.35794166  0.66439520  0.50925486    -0.82700
O1118       O  0.39207166  0.61067606  0.51125380    -0.85300
C1119       C  0.41085882  0.59014207  0.51826565     1.02400
O1120       O  0.43482633  0.59792114  0.52916591    -0.78100
O1121       O  0.41974973  0.62330417  0.56712936    -0.78200
C1122       C  0.40628231  0.64099015  0.58004959     1.02300
Cr1123     Cr  0.39117157  0.68827726  0.54685382     1.93700
Cr1124     Cr  0.40317677  0.65468902  0.50589204     1.93200
Cr1125     Cr  0.44528996  0.63942616  0.54377107     1.39100
O1126       O  0.41340596  0.66062869  0.53228326    -1.23300
O1127       O  0.33082582  0.95340726  0.43353269    -0.85600
O1128       O  0.35741424  0.96833366  0.46991146    -0.82600
C1129       C  0.36825530  0.96734755  0.48793953     0.97900
O1130       O  0.37082229  0.94092179  0.49697570    -0.82700
O1131       O  0.31235403  0.90474224  0.49593879    -0.85300
C1132       C  0.29198121  0.88511222  0.48917133     1.02400
O1133       O  0.29608834  0.87228392  0.47174912    -0.78100
O1134       O  0.29365810  0.92179774  0.44510378    -0.78300
C1135       C  0.30187281  0.94827716  0.43785772     1.02400
O1136       O  0.38489241  0.91045658  0.42608749    -0.85600
O1137       O  0.41245930  0.92808254  0.46248664    -0.82600
C1138       C  0.42134515  0.90381947  0.47266159     0.97900
O1139       O  0.40146408  0.88613390  0.48119527    -0.82700
O1140       O  0.34908338  0.85135727  0.48332669    -0.85300
C1141       C  0.35281714  0.83431292  0.46740860     1.02400
O1142       O  0.34810854  0.84549416  0.44951508    -0.78100
O1143       O  0.33827050  0.89184826  0.41885245    -0.78200
C1144       C  0.36613917  0.89800583  0.41337653     1.02300
Cr1145     Cr  0.36996310  0.93772255  0.44886199     1.93700
Cr1146     Cr  0.35745523  0.89708047  0.48742260     2.01200
Cr1147     Cr  0.32133106  0.88443766  0.44722178     1.39100
O1148       O  0.34969480  0.90668316  0.46120300    -1.23300
O1149       O  0.17820993  0.53497956  0.45575027    -0.85600
O1150       O  0.13046073  0.53811063  0.48415035    -0.82600
C1151       C  0.14716434  0.53742998  0.50041632     0.97900
O1152       O  0.16301549  0.56129849  0.50587424    -0.82700
O1153       O  0.19342996  0.61947480  0.50283249    -0.85300
C1154       C  0.21994563  0.61584763  0.49436264     1.02400
O1155       O  0.22193349  0.60515406  0.47622675    -0.78100
O1156       O  0.20622031  0.57258649  0.44102570    -0.78300
C1157       C  0.20243596  0.54360947  0.44589338     1.02400
O1158       O  0.14361044  0.57385869  0.42841023    -0.85600
O1159       O  0.09909383  0.58504878  0.45882426    -0.82600
C1160       C  0.08872709  0.59436559  0.47604573     0.97900
O1161       O  0.10539163  0.59123630  0.49217548    -0.82700
O1162       O  0.13726668  0.64546407  0.48561136    -0.85300
C1163       C  0.15486064  0.66483700  0.47655335     1.02400
O1164       O  0.17872115  0.65567826  0.46628864    -0.78100
O1165       O  0.16027541  0.62243212  0.43105106    -0.78200
C1166       C  0.14728892  0.60085176  0.42052469     1.02300
Cr1167     Cr  0.13920145  0.56037723  0.45762939     1.93700
Cr1168     Cr  0.15071192  0.60332821  0.49469818     1.93200
Cr1169     Cr  0.18943684  0.61243874  0.45468614     1.39100
O1170       O  0.16019040  0.59216164  0.46899426    -1.23300
O1171       O  0.08039226  0.80195290  0.56033006    -0.85600
O1172       O  0.12485860  0.78649772  0.53019773    -0.82600
C1173       C  0.12133752  0.78482978  0.51091161     0.97900
O1174       O  0.11156143  0.80801512  0.50054986    -0.82700
O1175       O  0.06209251  0.84920515  0.50042967    -0.85300
C1176       C  0.04346584  0.87121182  0.50509523     1.02400
O1177       O  0.04962474  0.88761070  0.52071567    -0.78100
O1178       O  0.04366508  0.83480796  0.54758301    -0.78300
C1179       C  0.05142740  0.80805681  0.55530253     1.02400
O1180       O  0.12845154  0.84995940  0.57494688    -0.85600
O1181       O  0.16516321  0.83708361  0.54239264    -0.82600
C1182       C  0.17345729  0.85055408  0.52582339     0.97900
O1183       O  0.15398900  0.85695499  0.51159104    -0.82700
O1184       O  0.10691812  0.90044002  0.51105453    -0.85300
C1185       C  0.11111859  0.91784062  0.52692476     1.02400
O1186       O  0.10046170  0.90961188  0.54450384    -0.78100
O1187       O  0.08055093  0.86664705  0.57599006    -0.78200
C1188       C  0.10658536  0.86270928  0.58483973     1.02300
Cr1189     Cr  0.12240843  0.82114944  0.55075326     1.93700
Cr1190     Cr  0.10783579  0.85323079  0.50815567     1.93200
Cr1191     Cr  0.07139227  0.87251638  0.54624861     1.39100
O1192       O  0.10110850  0.84837758  0.53498144    -1.23300
O1193       O  0.43937894  0.95346573  0.30701985    -0.85600
O1194       O  0.41233118  0.96902756  0.27042663    -0.82600
C1195       C  0.40247134  0.96696320  0.25214866     0.97900
O1196       O  0.39501277  0.94032790  0.24476446    -0.82700
O1197       O  0.45135635  0.90402529  0.24429098    -0.85300
C1198       C  0.47238756  0.88473535  0.25041955     1.02400
O1199       O  0.46973727  0.87104613  0.26770577    -0.78100
O1200       O  0.47474980  0.91969709  0.29553791    -0.78300
C1201       C  0.46803462  0.94665547  0.30290235     1.02400
O1202       O  0.38421720  0.91344705  0.31546013    -0.85600
O1203       O  0.35606712  0.93122501  0.27956057    -0.82600
C1204       C  0.34553956  0.90608906  0.27110817     0.97900
O1205       O  0.36398163  0.88701211  0.26229777    -0.82700
O1206       O  0.41568495  0.85082033  0.25702838    -0.85300
C1207       C  0.41281369  0.83330931  0.27265723     1.02400
O1208       O  0.41825926  0.84425642  0.29057994    -0.78100
O1209       O  0.42926450  0.88997069  0.32163788    -0.78200
C1210       C  0.40213826  0.89850658  0.32753878     1.02300
Cr1211     Cr  0.39940739  0.93925258  0.29219916     1.93700
Cr1212     Cr  0.40739512  0.89670825  0.25405060     1.93200
Cr1213     Cr  0.44575711  0.88298242  0.29304528     1.39100
O1214       O  0.41753952  0.90655402  0.27983624    -1.23300
O1215       O  0.18671528  0.80159040  0.18821371    -0.85600
O1216       O  0.15846948  0.78752241  0.22484692    -0.82600
C1217       C  0.14980778  0.79077306  0.24332303     0.97900
O1218       O  0.14369328  0.81800155  0.25045651    -0.82700
O1219       O  0.20032094  0.85344400  0.25137648    -0.85300
C1220       C  0.22232840  0.87123570  0.24515171     1.02400
O1221       O  0.22084230  0.88359886  0.22744579    -0.78100
O1222       O  0.22446761  0.83119551  0.20150655    -0.78300
C1223       C  0.21551582  0.80527151  0.19346132     1.02400
O1224       O  0.13436825  0.84414661  0.17848210    -0.85600
O1225       O  0.10467032  0.82705142  0.21446956    -0.82600
C1226       C  0.09452032  0.85208132  0.22305186     0.97900
O1227       O  0.11332425  0.87138954  0.23135686    -0.82700
O1228       O  0.16565472  0.90698630  0.23577964    -0.85300
C1229       C  0.16345336  0.92243759  0.21912512     1.02400
O1230       O  0.17215058  0.91021153  0.20219349    -0.78100
O1231       O  0.18205716  0.86229533  0.17339227    -0.78200
C1232       C  0.15416822  0.85768567  0.16704335     1.02300
Cr1233     Cr  0.14756547  0.81760685  0.20244450     1.93700
Cr1234     Cr  0.15670454  0.86120298  0.24031526     1.93200
Cr1235     Cr  0.19765999  0.87019228  0.20203294     1.39100
O1236       O  0.16723980  0.84945939  0.21496097    -1.23300
O1237       O  0.08582491  0.53906968  0.29523766    -0.85600
O1238       O  0.13704695  0.53980260  0.26906322    -0.82600
C1239       C  0.12233111  0.54011899  0.25202610     0.97900
O1240       O  0.10592156  0.56384414  0.24703009    -0.82700
O1241       O  0.07640243  0.62284976  0.24906582    -0.85300
C1242       C  0.04975421  0.62223546  0.25778355     1.02400
O1243       O  0.04727635  0.61417353  0.27635619    -0.78100
O1244       O  0.05878067  0.57788218  0.30989332    -0.78300
C1245       C  0.06111138  0.54887077  0.30417539     1.02400
O1246       O  0.11930149  0.57446260  0.32487270    -0.85600
O1247       O  0.16709271  0.58476669  0.29604988    -0.82600
C1248       C  0.17959316  0.59265932  0.27917216     0.97900
O1249       O  0.16377244  0.59264762  0.26245815    -0.82700
O1250       O  0.13316399  0.64776085  0.26666628    -0.85300
C1251       C  0.11805815  0.66857979  0.27642419     1.02400
O1252       O  0.09444542  0.66090353  0.28751827    -0.78100
O1253       O  0.10846249  0.62456101  0.32212850    -0.78200
C1254       C  0.11675790  0.60140283  0.33305936     1.02300
Cr1255     Cr  0.12607164  0.56219638  0.29544098     1.93700
Cr1256     Cr  0.11864805  0.60577050  0.25828457     1.93200
Cr1257     Cr  0.07961127  0.61773566  0.29797450     1.39100
O1258       O  0.10769914  0.59550492  0.28382527    -1.23300
O1259       O  0.32941820  0.69865479  0.18737132    -0.85600
O1260       O  0.36558837  0.71554093  0.22042192    -0.82600
C1261       C  0.37068168  0.71461082  0.23960818     0.97900
O1262       O  0.36939949  0.68901170  0.24958540    -0.82700
O1263       O  0.31486418  0.65298395  0.25100194    -0.85300
C1264       C  0.29436077  0.63272677  0.24624952     1.02400
O1265       O  0.29599723  0.61886161  0.22911983    -0.78100
O1266       O  0.29176810  0.67173197  0.20314339    -0.78300
C1267       C  0.30097586  0.69654884  0.19390455     1.02400
O1268       O  0.37845273  0.64999736  0.17714532    -0.85600
O1269       O  0.41329643  0.66985641  0.21100779    -0.82600
C1270       C  0.42235790  0.65019787  0.22458432     0.97900
O1271       O  0.40309800  0.63521335  0.23551485    -0.82700
O1272       O  0.35180592  0.59822071  0.23737710    -0.85300
C1273       C  0.35326378  0.58190778  0.22088437     1.02400
O1274       O  0.34282125  0.59260533  0.20382983    -0.78100
O1275       O  0.32872654  0.63927082  0.17414293    -0.78200
C1276       C  0.35608688  0.63819402  0.16680553     1.02300
Cr1277     Cr  0.36999592  0.68109793  0.20000063     1.93700
Cr1278     Cr  0.35866822  0.64476944  0.24124250     1.93200
Cr1279     Cr  0.31723305  0.63226514  0.20341046     1.39100
O1280       O  0.34909774  0.65312039  0.21506701    -1.23300
C1281       C  0.02063703  0.63316642  0.24719287    -0.00400
C1282       C  0.49736715  0.65248764  0.25580546    -0.12300
C1283       C  0.46767016  0.66078535  0.24812529     0.01800
C1284       C  0.45605485  0.64649195  0.22991403    -0.00500
C1285       C  0.47493578  0.62415056  0.21955632    -0.12200
C1286       C  0.01218431  0.62499703  0.22670971     0.01700
H1287       H  0.00616700  0.65834268  0.27461023     0.14700
H1288       H  0.46562507  0.61229762  0.20594301     0.14700
C1289       C  0.03332898  0.60690617  0.21381716     0.36400
C1290       C  0.44887103  0.68259249  0.26016216     0.36300
N1291       N  0.05037167  0.59243126  0.20350419    -0.44000
N1292       N  0.43439570  0.69979294  0.27036480    -0.44000
C1293       C  0.21310198  0.60071086  0.27796404    -0.00400
C1294       C  0.22183309  0.63265530  0.28007281    -0.12300
C1295       C  0.25015781  0.64368131  0.27149853     0.01800
C1296       C  0.26961375  0.62237295  0.26059584    -0.00500
C1297       C  0.26239689  0.58987138  0.26065469    -0.12200
C1298       C  0.23426248  0.57894963  0.26912479     0.01700
H1299       H  0.20528665  0.64940985  0.28677149     0.14700
H1300       H  0.27771497  0.57321798  0.25269559     0.14700
C1301       C  0.22615748  0.54586261  0.26679499     0.36400
C1302       C  0.25711039  0.67712163  0.27232076     0.36300
N1303       N  0.21962341  0.51939669  0.26488368    -0.44000
N1304       N  0.26282277  0.70390453  0.27305454    -0.44000
C1305       C  0.23806812  0.77808658  0.19084732    -0.00400
C1306       C  0.22567234  0.74713193  0.19018799    -0.12300
C1307       C  0.24544513  0.72033226  0.19058570     0.01800
C1308       C  0.27874953  0.72393113  0.19113360    -0.00500
C1309       C  0.29119868  0.75484272  0.19046638    -0.12200
C1310       C  0.27137023  0.78169032  0.19046509     0.01700
H1311       H  0.20023237  0.74368294  0.19034801     0.14700
H1312       H  0.31665628  0.75817339  0.19072619     0.14700
C1313       C  0.28599889  0.81254715  0.18995715     0.36400
C1314       C  0.23067677  0.68950091  0.19062715     0.36300
N1315       N  0.29785125  0.83722886  0.18948408    -0.44000
N1316       N  0.21869696  0.66486526  0.19072056    -0.44000
C1317       C  0.14492961  0.76199126  0.25612850    -0.00400
C1318       C  0.11668309  0.75836808  0.26731083    -0.12300
C1319       C  0.10811738  0.72879119  0.27570233     0.01800
C1320       C  0.12821313  0.70221919  0.27305836    -0.00500
C1321       C  0.15807395  0.70719748  0.26392725    -0.12200
C1322       C  0.16639080  0.73645334  0.25545050     0.01700
H1323       H  0.10032028  0.77813081  0.26837322     0.14700
H1324       H  0.17462313  0.68765426  0.26243041     0.14700
C1325       C  0.19711965  0.73958137  0.24601434     0.36400
C1326       C  0.07792832  0.72615435  0.28584078     0.36300
N1327       N  0.22188544  0.74207222  0.23866504    -0.44000
N1328       N  0.05375883  0.72417163  0.29405886    -0.44000
C1329       C  0.15029435  0.95473779  0.22055615    -0.00400
C1330       C  0.11996922  0.95781403  0.22915114    -0.12300
C1331       C  0.10941059  0.98675065  0.23712138     0.01800
C1332       C  0.12624149  0.51287703  0.23805963    -0.00500
C1333       C  0.15412841  0.51061616  0.22639427    -0.12200
C1334       C  0.16941797  0.98184562  0.21858958     0.01700
H1335       H  0.10554967  0.93692633  0.23122926     0.14700
H1336       H  0.16938727  0.53113861  0.22503610     0.14700
C1337       C  0.20098289  0.97977476  0.21027024     0.36400
C1338       C  0.07922773  0.98802574  0.24746248     0.36300
N1339       N  0.22631564  0.97821229  0.20362550    -0.44000
N1340       N  0.05510116  0.98917642  0.25580447    -0.44000
C1341       C  0.49379814  0.97100027  0.30595632    -0.00400
C1342       C  0.48066298  0.50954947  0.30301585    -0.12300
C1343       C  0.00270672  0.53287312  0.30749247     0.01800
C1344       C  0.03532707  0.52519573  0.30788144    -0.00500
C1345       C  0.04604382  0.99047723  0.30719959    -0.12200
C1346       C  0.02354430  0.96606579  0.30733421     0.01700
H1347       H  0.45607444  0.51550406  0.29998804     0.14700
H1348       H  0.07097318  0.98422534  0.30719951     0.14700
C1349       C  0.03511860  0.93384071  0.30775428     0.36400
C1350       C  0.49326362  0.56533036  0.29712679     0.36300
N1351       N  0.04454248  0.90807329  0.30803476    -0.44000
N1352       N  0.48459829  0.59057782  0.29299540    -0.44000
C1353       C  0.06024491  0.85834617  0.22506285    -0.00400
C1354       C  0.04926375  0.88976571  0.22332426    -0.12300
C1355       C  0.51777448  0.89765828  0.22646754     0.01800
C1356       C  0.49964542  0.87556896  0.23751975    -0.00500
C1357       C  0.00964289  0.84356643  0.23956157    -0.12200
C1358       C  0.03937280  0.83477303  0.23207909     0.01700
H1359       H  0.06476235  0.90781655  0.21722780     0.14700
H1360       H  0.99459851  0.82564320  0.24631415     0.14700
C1361       C  0.04870329  0.80187587  0.23333874     0.36400
C1362       C  0.50725498  0.92993882  0.22373692     0.36300
N1363       N  0.05607592  0.77548267  0.23419209    -0.44000
N1364       N  0.49856348  0.95572108  0.22144295    -0.44000
C1365       C  0.31127068  0.89869695  0.27028118    -0.00400
C1366       C  0.30211296  0.86662057  0.27113647    -0.12300
C1367       C  0.27156175  0.85709954  0.26528795     0.01800
C1368       C  0.24979886  0.87989071  0.25816703    -0.00500
C1369       C  0.25789330  0.91218982  0.25930544    -0.12200
C1370       C  0.28826072  0.92179644  0.26545611     0.01700
H1371       H  0.31950831  0.84870330  0.27515755     0.14700
H1372       H  0.24108302  0.92987807  0.25392578     0.14700
C1373       C  0.29595299  0.95509101  0.26458161     0.36400
C1374       C  0.26418332  0.82372828  0.26484692     0.36300
N1375       N  0.30203220  0.98179103  0.26387141    -0.44000
N1376       N  0.25831028  0.79696447  0.26458621    -0.44000
C1377       C  0.39653188  0.99627843  0.24019288    -0.00400
C1378       C  0.36963432  0.99779036  0.22725819    -0.12300
C1379       C  0.34967270  0.52235628  0.22031520     0.01800
C1380       C  0.36758295  0.55024794  0.22255129    -0.00500
C1381       C  0.39839190  0.54849688  0.23072632    -0.12200
C1382       C  0.41044026  0.52000260  0.23842076     0.01700
H1383       H  0.35575851  0.97660015  0.22445539     0.14700
H1384       H  0.41238654  0.56991462  0.23224814     0.14700
C1385       C  0.44193951  0.51978787  0.24725396     0.36400
C1386       C  0.31762884  0.52321143  0.21245081     0.36300
N1387       N  0.46729757  0.51980876  0.25413175    -0.44000
N1388       N  0.29187083  0.52383575  0.20625560    -0.44000
C1389       C  0.40511353  0.79984079  0.26836097    -0.00400
C1390       C  0.42056226  0.78631981  0.25136672    -0.12300
C1391       C  0.40915606  0.75904038  0.24188355     0.01800
C1392       C  0.38232669  0.74360800  0.24989190    -0.00500
C1393       C  0.36803744  0.75558436  0.26788789    -0.12200
C1394       C  0.37887450  0.78404744  0.27693464     0.01700
H1395       H  0.44070007  0.79833824  0.24461950     0.14700
H1396       H  0.34760596  0.74361337  0.27422763     0.14700
C1397       C  0.36136882  0.79782811  0.29379123     0.36400
C1398       C  0.42543129  0.74762044  0.22372919     0.36300
N1399       N  0.34726181  0.80904357  0.30723144    -0.44000
N1400       N  0.43841765  0.73874976  0.20912071    -0.44000
C1401       C  0.13687196  0.60533127  0.39858258    -0.00400
C1402       C  0.11623466  0.58245809  0.39022810    -0.12300
C1403       C  0.10892280  0.58156115  0.36919516     0.01800
C1404       C  0.12158284  0.60446164  0.35573128    -0.00500
C1405       C  0.14041109  0.62884167  0.36408332    -0.12200
C1406       C  0.14845637  0.62927006  0.38529807     0.01700
H1407       H  0.10637758  0.56427708  0.40009430     0.14700
H1408       H  0.15018349  0.64659147  0.35386604     0.14700
C1409       C  0.17004157  0.65331114  0.39261452     0.36400
C1410       C  0.08853458  0.55640352  0.36185884     0.36300
N1411       N  0.18747770  0.67255534  0.39839016    -0.44000
N1412       N  0.07238404  0.53606684  0.35609110    -0.44000
C1413       C  0.14910192  0.69853649  0.48071507    -0.00400
C1414       C  0.16975006  0.71349737  0.49457442    -0.12300
C1415       C  0.16097118  0.74159311  0.50444508     0.01800
C1416       C  0.13117270  0.75557152  0.50014618    -0.00500
C1417       C  0.11149545  0.74187283  0.48503085    -0.12200
C1418       C  0.12004792  0.71318132  0.47554958     0.01700
H1419       H  0.19191002  0.70204700  0.49878065     0.14700
H1420       H  0.08895913  0.75287035  0.48126483     0.14700
C1421       C  0.09855124  0.69880693  0.46086863     0.36400
C1422       C  0.18293578  0.75531577  0.51912803     0.36300
N1423       N  0.08141934  0.68729090  0.44903336    -0.44000
N1424       N  0.20058147  0.76610992  0.53093154    -0.44000
C1425       C  0.14723779  0.50788078  0.51226084    -0.00400
C1426       C  0.15872189  0.98266031  0.50172532    -0.12300
C1427       C  0.14965229  0.95247887  0.50781169     0.01800
C1428       C  0.12701303  0.94869200  0.52375628    -0.00500
C1429       C  0.11676628  0.97566475  0.53465240    -0.12200
C1430       C  0.12937866  0.50420693  0.53040691     0.01700
H1431       H  0.17411977  0.98540967  0.48847020     0.14700
H1432       H  0.09978983  0.97317843  0.54703640     0.14700
C1433       C  0.11933592  0.53141117  0.54221393     0.36400
C1434       C  0.16266107  0.92640372  0.49611720     0.36300
N1435       N  0.11158050  0.55327539  0.55175521    -0.44000
N1436       N  0.17361557  0.90658007  0.48604424    -0.44000
C1437       C  0.37580631  0.89302660  0.39158055    -0.00400
C1438       C  0.35223946  0.89251525  0.37613483    -0.12300
C1439       C  0.36013786  0.89260879  0.35515785     0.01800
C1440       C  0.39231063  0.89316594  0.34923353    -0.00500
C1441       C  0.41581570  0.89114066  0.36464600    -0.12200
C1442       C  0.40791668  0.89112176  0.38562711     0.01700
H1443       H  0.32745772  0.89333431  0.38040639     0.14700
H1444       H  0.44060028  0.89095238  0.36035501     0.14700
C1445       C  0.43331660  0.88936786  0.40064184     0.36400
C1446       C  0.33469077  0.89222260  0.34011831     0.36300
N1447       N  0.45362753  0.88795672  0.41269782    -0.44000
N1448       N  0.31430268  0.89186050  0.32808236    -0.44000
C1449       C  0.27694166  0.97334337  0.43537125    -0.00400
C1450       C  0.24499443  0.96410799  0.43658975    -0.12300
C1451       C  0.22052838  0.98636088  0.43849609     0.01800
C1452       C  0.22696370  0.51957460  0.44040217    -0.00500
C1453       C  0.25849509  0.52926314  0.43751539    -0.12200
C1454       C  0.28319763  0.50704595  0.43560884     0.01700
H1455       H  0.23899867  0.93913286  0.43673191     0.14700
H1456       H  0.26418924  0.55430291  0.43786060     0.14700
C1457       C  0.31513874  0.51888851  0.43412863     0.36400
C1458       C  0.18849678  0.97455155  0.43966575     0.36300
N1459       N  0.34066475  0.52860264  0.43292014    -0.44000
N1460       N  0.16287910  0.96498940  0.44058144    -0.44000
C1461       C  0.26401302  0.87448238  0.50142496    -0.00400
C1462       C  0.25098982  0.89381853  0.51699504    -0.12300
C1463       C  0.22236266  0.88541829  0.52671848     0.01800
C1464       C  0.20701556  0.85684940  0.52133102    -0.00500
C1465       C  0.22093579  0.83683083  0.50686821    -0.12200
C1466       C  0.24874900  0.84516353  0.49684668     0.01700
H1467       H  0.26212522  0.91623908  0.52074468     0.14700
H1468       H  0.20866556  0.81535959  0.50224141     0.14700
C1469       C  0.25952498  0.82334555  0.48112185     0.36400
C1470       C  0.20806094  0.90729201  0.54107241     0.36300
N1471       N  0.26737807  0.80578482  0.46837473    -0.44000
N1472       N  0.19651011  0.92486626  0.55253469    -0.44000
C1473       C  0.45529486  0.89599082  0.47603721    -0.00400
C1474       C  0.46425366  0.86379139  0.47659449    -0.12300
C1475       C  0.99344185  0.85536458  0.48606198     0.01800
C1476       C  0.01478298  0.87886754  0.49279249    -0.00500
C1477       C  0.00654045  0.91096482  0.49024910    -0.12200
C1478       C  0.47747932  0.91904268  0.48227380     0.01700
H1479       H  0.44736162  0.84584273  0.47187467     0.14700
H1480       H  0.02294357  0.92921614  0.49526896     0.14700
C1481       C  0.46961391  0.95235971  0.48238798     0.36400
C1482       C  0.00052728  0.82205904  0.48838042     0.36300
N1483       N  0.46326378  0.97904729  0.48253246    -0.44000
N1484       N  0.00621946  0.79537970  0.49026281    -0.44000
C1485       C  0.48047135  0.73161102  0.56125233    -0.00400
C1486       C  0.47121641  0.76359998  0.55971990    -0.12300
C1487       C  0.49340228  0.78825557  0.55933014     0.01800
C1488       C  0.02614054  0.78308671  0.55803699    -0.00500
C1489       C  0.03461214  0.75207440  0.56411849    -0.12200
C1490       C  0.01218097  0.72725441  0.56478243     0.01700
H1491       H  0.44632722  0.76955724  0.55812168     0.14700
H1492       H  0.05911214  0.74684732  0.56790436     0.14700
C1493       C  0.02306212  0.69627037  0.57101942     0.36400
C1494       C  0.48132384  0.82019486  0.55754687     0.36300
N1495       N  0.03188319  0.67149459  0.57611944    -0.44000
N1496       N  0.47151854  0.84572741  0.55609406    -0.44000
C1497       C  0.50085218  0.63701398  0.49168965    -0.00400
C1498       C  0.00070085  0.60953213  0.47897957    -0.12300
C1499       C  0.02923134  0.59576198  0.47254553     0.01800
C1500       C  0.05801394  0.61026253  0.47806183    -0.00500
C1501       C  0.05773434  0.63938156  0.48853322    -0.12200
C1502       C  0.02949482  0.65309329  0.49495597     0.01700
H1503       H  0.47828271  0.59641106  0.47751771     0.14700
H1504       H  0.07978688  0.65078227  0.49270635     0.14700
C1505       C  0.53140406  0.68278969  0.50582949     0.36400
C1506       C  0.02855292  0.56522015  0.46247346     0.36300
N1507       N  0.53311791  0.70654336  0.51472268    -0.44000
N1508       N  0.02804715  0.54061385  0.45455645    -0.44000
C1509       C  0.30619808  0.65412562  0.51928448    -0.00400
C1510       C  0.28799816  0.63399960  0.53178550    -0.12300
C1511       C  0.25907461  0.62149869  0.52441244     0.01800
C1512       C  0.24863563  0.62881279  0.50420354    -0.00500
C1513       C  0.26560000  0.65046253  0.49247573    -0.12200
C1514       C  0.29370999  0.66338832  0.49972674     0.01700
H1515       H  0.29710834  0.62667281  0.54672926     0.14700
H1516       H  0.25688320  0.65714821  0.47726438     0.14700
C1517       C  0.30950723  0.68506607  0.48594172     0.36400
C1518       C  0.24154057  0.59997389  0.53726011     0.36300
N1519       N  0.32169400  0.70189639  0.47437366    -0.44000
N1520       N  0.22746008  0.58272830  0.54758542    -0.44000
C1521       C  0.38111866  0.99730904  0.49679987    -0.00400
C1522       C  0.38863171  0.52178114  0.48402038    -0.12300
C1523       C  0.40066554  0.55084437  0.49040577     0.01800
C1524       C  0.40510232  0.55715147  0.51160443    -0.00500
C1525       C  0.39928048  0.53297328  0.52597552    -0.12200
C1526       C  0.38753675  0.50325626  0.51943936     0.01700
H1527       H  0.38819086  0.01624512  0.46609622     0.14700
H1528       H  0.40265291  0.53769537  0.54229672     0.14700
C1529       C  0.37738866  0.98020195  0.53351269     0.36400
C1530       C  0.40806715  0.57401778  0.47472269     0.36300
N1531       N  0.37052598  0.96176131  0.54589757    -0.44000
N1532       N  0.41393784  0.59241848  0.46208838    -0.44000
C1533       C  0.38089696  0.74658456  0.49268678    -0.00400
C1534       C  0.39839682  0.75856549  0.47596072    -0.12300
C1535       C  0.38802633  0.78583208  0.46531030     0.01800
C1536       C  0.35963994  0.80078507  0.47127579    -0.00500
C1537       C  0.34097369  0.78698185  0.48646776    -0.12200
C1538       C  0.35115427  0.76064715  0.49730590     0.01700
H1539       H  0.42079477  0.74768725  0.47190589     0.14700
H1540       H  0.31936621  0.79868109  0.49129065     0.14700
C1541       C  0.33030863  0.74960525  0.51343016     0.36400
C1542       C  0.40769308  0.79922598  0.44943151     0.36300
N1543       N  0.31343109  0.74112197  0.52629717    -0.44000
N1544       N  0.42336769  0.80995661  0.43663310    -0.44000
C1545       C  0.47993834  0.77311240  0.94272204    -0.00400
C1546       C  0.46959289  0.74148441  0.94093875    -0.12300
C1547       C  0.99031481  0.71626200  0.94061842     0.01800
C1548       C  0.02335291  0.72206164  0.94037087    -0.00500
C1549       C  0.03359637  0.75381352  0.94048368    -0.12200
C1550       C  0.01203864  0.77916987  0.94214577     0.01700
H1551       H  0.44446112  0.73630588  0.94122352     0.14700
H1552       H  0.05872865  0.75895941  0.94004225     0.14700
C1553       C  0.02451433  0.81097509  0.94193932     0.36400
C1554       C  0.97743689  0.68464655  0.93920800     0.36300
N1555       N  0.03462678  0.83642985  0.94161498    -0.44000
N1556       N  0.46833857  0.65915997  0.93590516    -0.44000
C1557       C  0.14585425  0.86810430  0.14587213    -0.00400
C1558       C  0.15614001  0.89815051  0.13960491    -0.12300
C1559       C  0.15394302  0.90761881  0.11895207     0.01800
C1560       C  0.14151612  0.88661256  0.10394712    -0.00500
C1561       C  0.12999679  0.85697263  0.11033496    -0.12200
C1562       C  0.13168913  0.84776009  0.13117937     0.01700
H1563       H  0.16711025  0.91389018  0.15081977     0.14700
H1564       H  0.12055483  0.84062265  0.09892099     0.14700
C1565       C  0.12087299  0.81655872  0.13683035     0.36400
C1566       C  0.16731336  0.93787832  0.11337245     0.36300
N1567       N  0.11220400  0.79156484  0.14141460    -0.44000
N1568       N  0.17817094  0.96205524  0.10892420    -0.44000
C1569       C  0.05409147  0.88488233  0.02131214    -0.00400
C1570       C  0.02839336  0.89000846  0.03463437    -0.12300
C1571       C  0.49959042  0.88096158  0.02816345     0.01800
C1572       C  0.49616255  0.86467420  0.00925373    -0.00500
C1573       C  0.01959068  0.85458706  0.99852563    -0.12200
C1574       C  0.04951714  0.86590515  0.00337472     0.01700
H1575       H  0.03159276  0.90419742  0.04847075     0.14700
H1576       H  0.01602315  0.84147980  0.98425344     0.14700
C1577       C  0.07426137  0.85895269  0.98868157     0.36400
C1578       C  0.47256851  0.88741049  0.04104099     0.36300
N1579       N  0.09361651  0.85317446  0.97665457    -0.44000
N1580       N  0.45082522  0.89247799  0.05133382    -0.44000
C1581       C  0.24567760  0.86946773  0.00087174    -0.00400
C1582       C  0.25407242  0.87402643  0.98013588    -0.12300
C1583       C  0.28345448  0.86321493  0.97292463     0.01800
C1584       C  0.30403344  0.84705295  0.98649028    -0.00500
C1585       C  0.29470726  0.84059929  0.00665613    -0.12200
C1586       C  0.26588252  0.85160879  0.01398893     0.01700
H1587       H  0.23846229  0.88722338  0.96993021     0.14700
H1588       H  0.31080439  0.82828869  0.01705638     0.14700
C1589       C  0.25799998  0.84447800  0.03518858     0.36400
C1590       C  0.29273083  0.87006377  0.95198462     0.36300
N1591       N  0.25183836  0.83886440  0.05218840    -0.44000
N1592       N  0.30030522  0.87542196  0.93520264    -0.44000
C1593       C  0.11919959  0.73939472  0.00635343    -0.00400
C1594       C  0.14981065  0.74320790  0.01473081    -0.12300
C1595       C  0.16023517  0.77289741  0.02216385     0.01800
C1596       C  0.13965610  0.79936571  0.02138457    -0.00500
C1597       C  0.10794398  0.79414900  0.01532607    -0.12200
C1598       C  0.09781459  0.76491928  0.00749927     0.01700
H1599       H  0.16629416  0.72348720  0.01423163     0.14700
H1600       H  0.09111280  0.81347554  0.01592391     0.14700
C1601       C  0.06544270  0.76188324  0.00041475     0.36400
C1602       C  0.19240440  0.77557920  0.02951993     0.36300
N1603       N  0.03944791  0.75955216  0.99485617    -0.44000
N1604       N  0.21819623  0.77711589  0.03556493    -0.44000
C1605       C  0.12921244  0.98873326  0.98870641    -0.00400
C1606       C  0.09696008  0.99598872  0.98590699    -0.12300
C1607       C  0.08426033  0.52501219  0.97880329     0.01800
C1608       C  0.10666971  0.54509331  0.96960217    -0.00500
C1609       C  0.13843025  0.53517084  0.96851504    -0.12200
C1610       C  0.14837212  0.50683476  0.97805499     0.01700
H1611       H  0.07914670  0.98043826  0.99233916     0.14700
H1612       H  0.15582286  0.55065349  0.96160039     0.14700
C1613       C  0.18141102  0.49824268  0.97759818     0.36400
C1614       C  0.05118919  0.53379396  0.97985775     0.36300
N1615       N  0.20778413  0.49081660  0.97720601    -0.44000
N1616       N  0.02471471  0.54080766  0.98067820    -0.44000
C1617       C  0.36095747  0.60548663  0.10384635    -0.00400
C1618       C  0.33991868  0.59155759  0.11773182    -0.12300
C1619       C  0.33972929  0.60026121  0.13854345     0.01800
C1620       C  0.36048069  0.62417841  0.14588042    -0.00500
C1621       C  0.38322410  0.63650668  0.13227427    -0.12200
C1622       C  0.38362118  0.62725075  0.11132666     0.01700
H1623       H  0.32280293  0.57437611  0.11210882     0.14700
H1624       H  0.39949698  0.65458611  0.13768467     0.14700
C1625       C  0.40587753  0.64192642  0.09751477     0.36400
C1626       C  0.31759095  0.58434522  0.15192263     0.36300
N1627       N  0.42369646  0.65357633  0.08636142    -0.44000
N1628       N  0.29985111  0.57153297  0.16258092    -0.44000
C1629       C  0.22281350  0.97811185  0.05970483    -0.00400
C1630       C  0.21213979  0.51093839  0.05660126    -0.12300
C1631       C  0.23516374  0.53482501  0.05561126     0.01800
C1632       C  0.26783609  0.52731449  0.05782532    -0.00500
C1633       C  0.27858081  0.99469237  0.06084252    -0.12200
C1634       C  0.25549263  0.97050452  0.06135327     0.01700
H1635       H  0.18752078  0.51745370  0.05425572     0.14700
H1636       H  0.30343264  0.98818761  0.06115543     0.14700
C1637       C  0.26633805  0.93812386  0.06263431     0.36400
C1638       C  0.22406192  0.56675281  0.05195388     0.36300
N1639       N  0.27527034  0.91224322  0.06377713    -0.44000
N1640       N  0.21496722  0.59223769  0.04897128    -0.44000
C1641       C  0.20110076  0.64187389  0.97669100    -0.00400
C1642       C  0.20994277  0.60966749  0.97744309    -0.12300
C1643       C  0.24015463  0.60058676  0.98413818     0.01800
C1644       C  0.26192101  0.62394882  0.99017112    -0.00500
C1645       C  0.25419944  0.65609004  0.98764749    -0.12200
C1646       C  0.22406392  0.66528255  0.98088213     0.01700
H1647       H  0.19257745  0.59148989  0.97404607     0.14700
H1648       H  0.27110545  0.67409007  0.99234940     0.14700
C1649       C  0.21659356  0.69868901  0.98047678     0.36400
C1650       C  0.24723047  0.56739290  0.98695321     0.36300
N1651       N  0.21074986  0.72548873  0.98020020    -0.44000
N1652       N  0.25355580  0.54100267  0.98950112    -0.44000
C1653       C  0.00727198  0.62175094  0.00104174    -0.00400
C1654       C  0.48442446  0.61317259  0.98848596    -0.12300
C1655       C  0.45554425  0.60225276  0.99561467     0.01800
C1656       C  0.44972013  0.60032462  0.01702609    -0.00500
C1657       C  0.47366613  0.60994246  0.03092642    -0.12200
C1658       C  0.00241683  0.61997804  0.02262840     0.01700
H1659       H  0.48783379  0.61454950  0.97190471     0.14700
H1660       H  0.46897397  0.60984790  0.04737260     0.14700
C1661       C  0.02682475  0.62919233  0.03709242     0.36400
C1662       C  0.43165740  0.59455433  0.98029013     0.36300
N1663       N  0.04633915  0.63674107  0.04871911    -0.44000
N1664       N  0.41273799  0.58901113  0.96779384    -0.44000
C1665       C  0.36730342  0.50519156  0.99222653    -0.00400
C1666       C  0.39991221  0.00329608  0.98447358    -0.12300
C1667       C  0.41083238  0.97410956  0.97680805     0.01800
C1668       C  0.39133667  0.94715980  0.97798550    -0.00500
C1669       C  0.36058530  0.95032217  0.98587828    -0.12200
C1670       C  0.34980901  0.97933208  0.99375393     0.01700
H1671       H  0.40874670  0.52426476  0.97737031     0.14700
H1672       H  0.34557622  0.92957528  0.98700392     0.14700
C1673       C  0.31988298  0.47812957  0.00666452     0.36400
C1674       C  0.44309625  0.97167165  0.96971849     0.36300
N1675       N  0.29658614  0.47835938  0.01597323    -0.44000
N1676       N  0.46901402  0.96966949  0.96415193    -0.44000
C1677       C  0.38743577  0.75514904  0.01309617    -0.00400
C1678       C  0.35886119  0.75397304  0.02416329    -0.12300
C1679       C  0.34717173  0.72507480  0.03154748     0.01800
C1680       C  0.36460788  0.69711001  0.02822519    -0.00500
C1681       C  0.39459479  0.69886937  0.01907682    -0.12200
C1682       C  0.40610925  0.72753477  0.01148204     0.01700
H1683       H  0.34428945  0.77507207  0.02543913     0.14700
H1684       H  0.40818233  0.67737167  0.01661483     0.14700
C1685       C  0.43648775  0.72769577  0.00132492     0.36400
C1686       C  0.31589490  0.72413977  0.04039717     0.36300
N1687       N  0.46083062  0.72780341  0.99321143    -0.44000
N1688       N  0.29076486  0.72330235  0.04739915    -0.44000
C1689       C  0.36349845  0.85554690  0.85955843    -0.00400
C1690       C  0.34697610  0.83467566  0.87237219    -0.12300
C1691       C  0.35345634  0.83299935  0.89355164     0.01800
C1692       C  0.37795773  0.85177773  0.90225170    -0.00500
C1693       C  0.39333504  0.87389712  0.88951756    -0.12200
C1694       C  0.38597263  0.87621748  0.86839090     0.01700
H1695       H  0.32929392  0.81904358  0.86566440     0.14700
H1696       H  0.41170057  0.88894772  0.89596189     0.14700
C1697       C  0.40304147  0.89866237  0.85592793     0.36400
C1698       C  0.33534384  0.81075423  0.90559253     0.36300
N1699       N  0.41664261  0.91679491  0.84598607    -0.44000
N1700       N  0.32063553  0.79309305  0.91523177    -0.44000
C1701       C  0.13888470  0.64423098  0.85183738    -0.00400
C1702       C  0.16093760  0.63538440  0.86712030    -0.12300
C1703       C  0.15251203  0.63515245  0.88812299     0.01800
C1704       C  0.12137530  0.64344387  0.89403422    -0.00500
C1705       C  0.09887490  0.64995989  0.87855180    -0.12200
C1706       C  0.10737797  0.65074397  0.85769553     0.01700
H1707       H  0.18512774  0.63007459  0.86275056     0.14700
H1708       H  0.07477756  0.65591786  0.88281220     0.14700
C1709       C  0.08323264  0.65860648  0.84264924     0.36400
C1710       C  0.17610818  0.62615571  0.90326140     0.36300
N1711       N  0.06353136  0.66488537  0.83083466    -0.44000
N1712       N  0.19494958  0.61881953  0.91541351    -0.44000
C1713       C  0.22973622  0.73295487  0.80673745    -0.00400
C1714       C  0.22258279  0.76520443  0.80323429    -0.12300
C1715       C  0.24634193  0.78858111  0.80293902     0.01800
C1716       C  0.27826446  0.78022238  0.80680163    -0.00500
C1717       C  0.28520435  0.74832985  0.81131807    -0.12200
C1718       C  0.26164134  0.72488826  0.81126967     0.01700
H1719       H  0.19840608  0.77212760  0.79970927     0.14700
H1720       H  0.30953271  0.74138187  0.81437780     0.14700
C1721       C  0.27160036  0.69259874  0.81484231     0.36400
C1722       C  0.23747397  0.82032803  0.79694295     0.36300
N1723       N  0.27981110  0.66677211  0.81763511    -0.44000
N1724       N  0.23016351  0.84563784  0.79195521    -0.44000
C1725       C  0.11020425  0.87290293  0.60684736    -0.00400
C1726       C  0.08737152  0.89388533  0.61475209    -0.12300
C1727       C  0.08664723  0.90184366  0.63567430     0.01800
C1728       C  0.10898937  0.88863373  0.64947994    -0.00500
C1729       C  0.13328050  0.86942531  0.64159513    -0.12200
C1730       C  0.13415867  0.86153377  0.62042424     0.01700
H1731       H  0.06947955  0.90388861  0.60457267     0.14700
H1732       H  0.15077530  0.85951703  0.65209646     0.14700
C1733       C  0.15916601  0.84091557  0.61336716     0.36400
C1734       C  0.06276019  0.92402271  0.64250960     0.36300
N1735       N  0.17938371  0.82449558  0.60779821    -0.44000
N1736       N  0.04366700  0.94197234  0.64775584    -0.44000
C1737       C  0.45894685  0.85481594  0.78351981    -0.00400
C1738       C  0.47898555  0.83059427  0.77666392    -0.12300
C1739       C  0.00844400  0.83783174  0.76791135     0.01800
C1740       C  0.01865665  0.86971101  0.76697033    -0.00500
C1741       C  0.00052058  0.89311749  0.77690213    -0.12200
C1742       C  0.47051476  0.88613717  0.78439240     0.01700
H1743       H  0.47044167  0.80636636  0.77627964     0.14700
H1744       H  0.00841004  0.91754126  0.77676182     0.14700
C1745       C  0.45163528  0.91140349  0.79291764     0.36400
C1746       C  0.02771304  0.81213772  0.76019271     0.36300
N1747       N  0.43687005  0.93176899  0.80001012    -0.44000
N1748       N  0.04316067  0.79142506  0.75422253    -0.44000
C1749       C  0.26635835  0.87730304  0.74659485    -0.00400
C1750       C  0.25460830  0.90827396  0.74861281    -0.12300
C1751       C  0.22475162  0.91669233  0.74085185     0.01800
C1752       C  0.20559417  0.89366661  0.73112368    -0.00500
C1753       C  0.21819647  0.86310244  0.72795074    -0.12200
C1754       C  0.24852963  0.85491822  0.73532480     0.01700
H1755       H  0.26840802  0.92574970  0.75705226     0.14700
H1756       H  0.20376206  0.84519927  0.72044494     0.14700
C1757       C  0.25990939  0.82297783  0.73237569     0.36400
C1758       C  0.21363855  0.94841753  0.74478818     0.36300
N1759       N  0.26920290  0.79743935  0.72992859    -0.44000
N1760       N  0.20576612  0.97411546  0.74827148    -0.44000
C1761       C  0.11747323  0.79664380  0.72462115    -0.00400
C1762       C  0.14784002  0.79395571  0.73336751    -0.12300
C1763       C  0.16035014  0.76435377  0.73847963     0.01800
C1764       C  0.14185390  0.73709752  0.73548090    -0.00500
C1765       C  0.11298516  0.73942066  0.72469861    -0.12200
C1766       C  0.10084797  0.76905152  0.71892455     0.01700
H1767       H  0.16103335  0.81512704  0.73733768     0.14700
H1768       H  0.09857521  0.71840878  0.72253041     0.14700
C1769       C  0.06999087  0.77061650  0.70925856     0.36400
C1770       C  0.19111462  0.76265515  0.74823464     0.36300
N1771       N  0.04523526  0.77170644  0.70151791    -0.44000
N1772       N  0.21600541  0.76125451  0.75573555    -0.44000
C1773       C  0.13090776  0.99028650  0.75483576    -0.00400
C1774       C  0.12856054  0.99824859  0.77590553    -0.12300
C1775       C  0.13679004  0.52955543  0.78426732     0.01800
C1776       C  0.15317253  0.55080281  0.77136575    -0.00500
C1777       C  0.15974224  0.54192746  0.75104754    -0.12200
C1778       C  0.14925134  0.51315845  0.74303450     0.01700
H1779       H  0.11751862  0.98182239  0.78648965     0.14700
H1780       H  0.17194039  0.55839201  0.74099457     0.14700
C1781       C  0.15695137  0.50609261  0.72177047     0.36400
C1782       C  0.12847364  0.53853177  0.80505881     0.36300
N1783       N  0.16315126  0.50043966  0.70476614    -0.44000
N1784       N  0.12179511  0.54590329  0.82170642    -0.44000
C1785       C  0.40117749  0.61573067  0.64503545    -0.00400
C1786       C  0.40555910  0.59197886  0.63004821    -0.12300
C1787       C  0.40674928  0.59924241  0.60886859     0.01800
C1788       C  0.40260820  0.63092772  0.60211130    -0.00500
C1789       C  0.39683077  0.65439954  0.61714735    -0.12200
C1790       C  0.39645500  0.64722788  0.63830772     0.01700
H1791       H  0.40950596  0.56772100  0.63495027     0.14700
H1792       H  0.39363610  0.67885660  0.61246254     0.14700
C1793       C  0.39118724  0.67280115  0.65274366     0.36400
C1794       C  0.41299176  0.57365110  0.59462458     0.36300
N1795       N  0.38701891  0.69339446  0.66424508    -0.44000
N1796       N  0.41824333  0.55305409  0.58331691    -0.44000
C1797       C  0.47885491  0.51928857  0.69107571    -0.00400
C1798       C  0.46844320  0.98606214  0.69189096    -0.12300
C1799       C  0.98992406  0.96129428  0.69524862     0.01800
C1800       C  0.02275730  0.96767095  0.69578771    -0.00500
C1801       C  0.03418255  0.50052456  0.69213011    -0.12200
C1802       C  0.01208297  0.52543735  0.69045839     0.01700
H1803       H  0.44334394  0.98069121  0.69139236     0.14700
H1804       H  0.05924694  0.50604498  0.69190648     0.14700
C1805       C  0.02412968  0.55725943  0.68849320     0.36400
C1806       C  0.47763220  0.92907810  0.69421990     0.36300
N1807       N  0.03395941  0.58270997  0.68692439    -0.44000
N1808       N  0.46768699  0.90355329  0.69439142    -0.44000
C1809       C  0.39470880  0.50954862  0.75754089    -0.00400
C1810       C  0.40790202  0.98302689  0.74746304    -0.12300
C1811       C  0.40066963  0.95282825  0.75445936     0.01800
C1812       C  0.37831354  0.94883793  0.77062530    -0.00500
C1813       C  0.36695905  0.97587839  0.78095963    -0.12200
C1814       C  0.37288448  0.50577586  0.77369809     0.01700
H1815       H  0.42315834  0.98582363  0.73414414     0.14700
H1816       H  0.35055749  0.97332951  0.79366150     0.14700
C1817       C  0.35640569  0.53268371  0.78230829     0.36400
C1818       C  0.41580592  0.92663195  0.74396154     0.36300
N1819       N  0.34338621  0.55435537  0.78923588    -0.44000
N1820       N  0.42776956  0.90571086  0.73543469    -0.44000
C1821       C  0.38438946  0.75534394  0.74999911    -0.00400
C1822       C  0.39096481  0.72976918  0.76301678    -0.12300
C1823       C  0.40029490  0.70079888  0.75510731     0.01800
C1824       C  0.40391385  0.69691208  0.73357526    -0.00500
C1825       C  0.39763165  0.72243812  0.72030820    -0.12200
C1826       C  0.38755511  0.75170679  0.72840287     0.01700
H1827       H  0.38828090  0.73226766  0.77961627     0.14700
H1828       H  0.39947178  0.71919797  0.70375027     0.14700
C1829       C  0.38091054  0.77747654  0.71441293     0.36400
C1830       C  0.40469943  0.67510310  0.76961498     0.36300
N1831       N  0.37543959  0.79813919  0.70321150    -0.44000
N1832       N  0.40763620  0.65480637  0.78147199    -0.44000
C1833       C  0.05679165  0.64271826  0.77243442    -0.00400
C1834       C  0.05411152  0.61192977  0.76438624    -0.12300
C1835       C  0.52596256  0.60041792  0.75605052     0.01800
C1836       C  0.49897107  0.62011760  0.75632095    -0.00500
C1837       C  0.00062450  0.65077130  0.76595784    -0.12200
C1838       C  0.02954992  0.66181777  0.77400351     0.01700
H1839       H  0.07497728  0.59698866  0.76338418     0.14700
H1840       H  0.98016434  0.66634697  0.76595513     0.14700
C1841       C  0.03137217  0.69365264  0.78211761     0.36400
C1842       C  0.52507632  0.56899612  0.74717157     0.36300
N1843       N  0.03294678  0.71915553  0.78864201    -0.44000
N1844       N  0.52442007  0.54371836  0.74022272    -0.44000
C1845       C  0.30660143  0.60857776  0.72526253    -0.00400
C1846       C  0.30442765  0.63837110  0.73486735    -0.12300
C1847       C  0.27637830  0.64838782  0.74424807     0.01800
C1848       C  0.24967889  0.62838039  0.74407116    -0.00500
C1849       C  0.25112049  0.59958459  0.73306972    -0.12200
C1850       C  0.27943815  0.58940522  0.72389840     0.01700
H1851       H  0.32531409  0.65318407  0.73606753     0.14700
H1852       H  0.23070302  0.58403755  0.73279559     0.14700
C1853       C  0.28082093  0.55814329  0.71486695     0.36400
C1854       C  0.27580573  0.67913176  0.75408793     0.36300
N1855       N  0.28188562  0.53301394  0.70771509    -0.44000
N1856       N  0.27551338  0.70387871  0.76181650    -0.44000
O1857       O  0.92684221  0.03560564  0.70096351    -0.85600
O1858       O  0.87888428  0.03927698  0.72822980    -0.82600
C1859       C  0.89404848  0.03848515  0.74524851     0.97900
O1860       O  0.90993346  0.06194617  0.75144444    -0.82700
O1861       O  0.94171102  0.11998515  0.74989473    -0.85300
C1862       C  0.96904502  0.11273460  0.74365092     1.02400
O1863       O  0.97237491  0.10113101  0.72590129    -0.78100
O1864       O  0.95935558  0.07201874  0.68937098    -0.78300
C1865       C  0.95357131  0.04332793  0.69403795     1.02400
O1866       O  0.89654305  0.07836741  0.67303166    -0.85600
O1867       O  0.84932729  0.08852615  0.70302056    -0.82600
C1868       C  0.83763858  0.09552046  0.72038903     0.97900
O1869       O  0.85391759  0.09199143  0.73660276    -0.82700
O1870       O  0.88667090  0.14460992  0.72929589    -0.85300
C1871       C  0.90705781  0.16424300  0.72386375     1.02400
O1872       O  0.93261469  0.15527041  0.71532206    -0.78100
O1873       O  0.91745336  0.12493892  0.67866148    -0.78200
C1874       C  0.90467558  0.10538991  0.66651173     1.02300
Cr1875     Cr  0.88917659  0.06271301  0.70207348     1.93700
Cr1876     Cr  0.89919187  0.10377330  0.74004092     1.93200
Cr1877     Cr  0.94297445  0.11196346  0.70303399     1.39100
O1878       O  0.91085628  0.09258811  0.71496600    -1.23300
O1879       O  0.57723591  0.44898297  0.69271555    -0.85600
O1880       O  0.60778502  0.46364751  0.72805868    -0.82600
C1881       C  0.61981165  0.46208206  0.74578993     0.97900
O1882       O  0.62447169  0.43537876  0.75421229    -0.82700
O1883       O  0.56856586  0.39820107  0.75640361    -0.85300
C1884       C  0.54691718  0.37930787  0.75092369     1.02400
O1885       O  0.54772758  0.36676424  0.73320609    -0.78100
O1886       O  0.54135358  0.41948341  0.70787658    -0.78300
C1887       C  0.54878639  0.44462818  0.69846792     1.02400
O1888       O  0.62958775  0.40637587  0.68191882    -0.85600
O1889       O  0.66214106  0.42529599  0.71745185    -0.82600
C1890       C  0.67316711  0.40147774  0.72708066     0.97900
O1891       O  0.65507511  0.38202269  0.73562303    -0.82700
O1892       O  0.60424170  0.34502448  0.73960077    -0.85300
C1893       C  0.60556569  0.33020732  0.72251645     1.02400
O1894       O  0.59478220  0.34243285  0.70610907    -0.78100
O1895       O  0.58084283  0.39039951  0.67815019    -0.78200
C1896       C  0.60774463  0.39567903  0.67057759     1.02300
Cr1897     Cr  0.61798947  0.43356122  0.70600337     1.93700
Cr1898     Cr  0.61177881  0.39130358  0.74464564     1.93200
Cr1899     Cr  0.56844639  0.38126085  0.70723651     1.39100
O1900       O  0.59964755  0.40219232  0.71935312    -1.23300
O1901       O  0.67894940  0.21565817  0.79214278    -0.85600
O1902       O  0.63024060  0.21126394  0.76393766    -0.82600
C1903       C  0.64539275  0.21059460  0.74717615     0.97900
O1904       O  0.66158909  0.18665748  0.74227947    -0.82700
O1905       O  0.69256865  0.12863361  0.74615128    -0.85300
C1906       C  0.71955994  0.13479760  0.75345547     1.02400
O1907       O  0.72249446  0.14516481  0.77162818    -0.78100
O1908       O  0.70809999  0.17845558  0.80655831    -0.78300
C1909       C  0.70448821  0.20709660  0.80084708     1.02400
O1910       O  0.64423150  0.17682235  0.82028251    -0.85600
O1911       O  0.59921635  0.16564296  0.78981599    -0.82600
C1912       C  0.58801249  0.15608017  0.77277419     0.97900
O1913       O  0.60462103  0.15702882  0.75665345    -0.82700
O1914       O  0.63738135  0.10334469  0.76432398    -0.85300
C1915       C  0.65591092  0.08423277  0.77309692     1.02400
O1916       O  0.67999098  0.09396515  0.78315580    -0.78100
O1917       O  0.66342264  0.12877210  0.81800003    -0.78200
C1918       C  0.64918732  0.14994209  0.82814148     1.02300
Cr1919     Cr  0.63971728  0.18986713  0.79077180     1.93700
Cr1920     Cr  0.65008160  0.14507219  0.75437736     1.93200
Cr1921     Cr  0.69101277  0.13803444  0.79381409     1.39100
O1922       O  0.66049271  0.15750850  0.77974845    -1.23300
O1923       O  0.83299750  0.28941246  0.79501685    -0.85600
O1924       O  0.89094003  0.29114857  0.77302792    -0.82600
C1925       C  0.87682071  0.28608732  0.75639172     0.97900
O1926       O  0.85808424  0.30650716  0.74963647    -0.82700
O1927       O  0.82038171  0.35814929  0.74776397    -0.85300
C1928       C  0.79680260  0.36977540  0.75694442     1.02400
O1929       O  0.79724771  0.37503342  0.77607397    -0.78100
O1930       O  0.80371277  0.32977178  0.80680564    -0.78300
C1931       C  0.80679698  0.30032470  0.80174798     1.02400
O1932       O  0.86164564  0.32189068  0.82621987    -0.85600
O1933       O  0.91336540  0.33741591  0.79895371    -0.82600
C1934       C  0.92642476  0.34625324  0.78220586     0.97900
O1935       O  0.91123104  0.34681438  0.76498902    -0.82700
O1936       O  0.87136455  0.39647737  0.76130078    -0.85300
C1937       C  0.86642836  0.41670690  0.77512354     1.02400
O1938       O  0.85023612  0.41021301  0.79097466    -0.78100
O1939       O  0.85559906  0.37205547  0.82372669    -0.78200
C1940       C  0.86092643  0.34836583  0.83467189     1.02300
Cr1941     Cr  0.87321291  0.31290629  0.79724120     1.93700
Cr1942     Cr  0.86448847  0.35129657  0.75804055     1.93200
Cr1943     Cr  0.82864135  0.36952841  0.79840939     1.39100
O1944       O  0.85491110  0.34513098  0.78434172    -1.23300
O1945       O  0.82595970  0.04749414  0.06094341    -0.85600
O1946       O  0.85510911  0.03260221  0.02479839    -0.82600
C1947       C  0.86171576  0.03542198  0.00595350     0.97900
O1948       O  0.86476989  0.06247643  0.99793303    -0.82700
O1949       O  0.80825436  0.09756938  0.99883654    -0.85300
C1950       C  0.78736356  0.11667645  0.00501954     1.02400
O1951       O  0.79038463  0.12994485  0.02240677    -0.78100
O1952       O  0.78785990  0.07800671  0.04843715    -0.78300
C1953       C  0.79668076  0.05232597  0.05678527     1.02400
O1954       O  0.87872060  0.09212465  0.07007796    -0.85600
O1955       O  0.90803238  0.07425602  0.03337930    -0.82600
C1956       C  0.91634413  0.09746626  0.02215095     0.97900
O1957       O  0.89624500  0.11617247  0.01471339    -0.82700
O1958       O  0.84427654  0.15182832  0.01291311    -0.85300
C1959       C  0.84864135  0.16705333  0.02956533     1.02400
O1960       O  0.84088139  0.15526071  0.04674469    -0.78100
O1961       O  0.83047426  0.10784213  0.07587551    -0.78200
C1962       C  0.85846075  0.10383928  0.08207984     1.02300
Cr1963     Cr  0.86542048  0.06416005  0.04649057     1.93700
Cr1964     Cr  0.85247782  0.10581799  0.00807385     1.93200
Cr1965     Cr  0.81465723  0.11620127  0.04737702     1.39100
O1966       O  0.84431932  0.09495901  0.03389726    -1.23300
O1967       O  0.67163396  0.46311841  0.04898244    -0.85600
O1968       O  0.62574874  0.46318546  0.01891231    -0.82600
C1969       C  0.64222458  0.46449250  0.00259394     0.97900
O1970       O  0.66001258  0.44171187  0.99755707    -0.82700
O1971       O  0.68944829  0.38170695  0.99890612    -0.85300
C1972       C  0.71538289  0.38388035  0.00850689     1.02400
O1973       O  0.71623330  0.39444082  0.02656500    -0.78100
O1974       O  0.70022168  0.42389074  0.06176155    -0.78300
C1975       C  0.69683239  0.45327331  0.05754228     1.02400
O1976       O  0.63635671  0.42101772  0.07398753    -0.85600
O1977       O  0.59296486  0.41269771  0.04099077    -0.82600
C1978       C  0.58407298  0.40571386  0.02281689     0.97900
O1979       O  0.60181308  0.41239084  0.00790223    -0.82700
O1980       O  0.63170743  0.35640511  0.01307764    -0.85300
C1981       C  0.64707498  0.33526465  0.02245146     1.02400
O1982       O  0.67131910  0.34263854  0.03327270    -0.78100
O1983       O  0.65313921  0.37306540  0.06842416    -0.78200
C1984       C  0.64194102  0.39335707  0.08050326     1.02300
Cr1985     Cr  0.63286185  0.43774637  0.04489855     1.93700
Cr1986     Cr  0.64668968  0.39886028  0.00625479     1.93200
Cr1987     Cr  0.68305614  0.38514341  0.04652415     1.39100
O1988       O  0.65468766  0.40728316  0.03259237    -1.23300
O1989       O  0.92568946  0.29171875  0.94325870    -0.85600
O1990       O  0.90186557  0.28063768  0.98156493    -0.82600
C1991       C  0.89139502  0.28447265  0.99952083     0.97900
O1992       O  0.88317800  0.31170903  0.00549857    -0.82700
O1993       O  0.94008630  0.34477721  0.00493363    -0.85300
C1994       C  0.96290188  0.36001059  0.99744360     1.02400
O1995       O  0.96050159  0.37404319  0.98019030    -0.78100
O1996       O  0.96316249  0.32467286  0.95280077    -0.78300
C1997       C  0.95488857  0.29791278  0.94577272     1.02400
O1998       O  0.87129603  0.33184512  0.93480745    -0.85600
O1999       O  0.84543762  0.31754014  0.97202051    -0.82600
C2000       C  0.83546655  0.34358779  0.97937155     0.97900
O2001       O  0.85423914  0.36452731  0.98566579    -0.82700
O2002       O  0.90747611  0.39935399  0.99035111    -0.85300
C2003       C  0.90258332  0.41478607  0.97400576     1.02400
O2004       O  0.90898966  0.40242338  0.95669765    -0.78100
O2005       O  0.91617095  0.35460234  0.92717675    -0.78200
C2006       C  0.88889159  0.34517056  0.92191299     1.02300
Cr2007     Cr  0.88752406  0.30794403  0.95868319     1.93700
Cr2008     Cr  0.89707709  0.35396949  0.99472721     1.93200
Cr2009     Cr  0.93511402  0.36259661  0.95517255     1.39100
O2010       O  0.90671985  0.34127376  0.96940956    -1.23300
O2011       O  0.57549964  0.20120893  0.93599492    -0.85600
O2012       O  0.60222287  0.21592941  0.97300617    -0.82600
C2013       C  0.60999133  0.21294749  0.99168345     0.97900
O2014       O  0.61485666  0.18581387  0.99923541    -0.82700
O2015       O  0.55885059  0.14844778  0.99712027    -0.85300
C2016       C  0.53838621  0.12981712  0.98949951     1.02400
O2017       O  0.54366602  0.11643452  0.97237058    -0.78100
O2018       O  0.53902078  0.16782324  0.94644272    -0.78300
C2019       C  0.54663236  0.19503312  0.93988513     1.02400
O2020       O  0.63071353  0.16074486  0.92712702    -0.85600
O2021       O  0.65751059  0.17725231  0.96409329    -0.82600
C2022       C  0.66724786  0.15261953  0.97341159     0.97900
O2023       O  0.64827245  0.13381811  0.98183650    -0.82700
O2024       O  0.59732551  0.09631267  0.98367886    -0.85300
C2025       C  0.60346857  0.08091867  0.96742523     1.02400
O2026       O  0.59656165  0.09243727  0.94982886    -0.78100
O2027       O  0.58496447  0.14002061  0.91972943    -0.78200
C2028       C  0.61243687  0.14785777  0.91423319     1.02300
Cr2029     Cr  0.61496781  0.18614484  0.95092400     1.93700
Cr2030     Cr  0.60392870  0.14239184  0.98848477     1.93200
Cr2031     Cr  0.56822643  0.13078802  0.94805176     1.39100
O2032       O  0.59575350  0.15348012  0.96252194    -1.23300
O2033       O  0.92874120  0.21400810  0.54962153    -0.85600
O2034       O  0.87968279  0.21358475  0.52231983    -0.82600
C2035       C  0.89137423  0.21813952  0.50466714     0.97900
O2036       O  0.91066268  0.19817630  0.49734440    -0.82700
O2037       O  0.94588933  0.14141658  0.49427329    -0.85300
C2038       C  0.97292042  0.14525432  0.50204070     1.02400
O2039       O  0.97601586  0.15198762  0.52084617    -0.78100
O2040       O  0.96273920  0.17682178  0.55836457    -0.78300
C2041       C  0.95598122  0.20601264  0.55596187     1.02400
O2042       O  0.89872292  0.16660004  0.57391291    -0.85600
O2043       O  0.85165008  0.16048545  0.54250966    -0.82600
C2044       C  0.84022603  0.15773428  0.52439644     0.97900
O2045       O  0.85787458  0.16109123  0.50896156    -0.82700
O2046       O  0.89375873  0.10857140  0.51005239    -0.85300
C2047       C  0.91270610  0.08844732  0.51737343     1.02400
O2048       O  0.93647221  0.09669151  0.52829492    -0.78100
O2049       O  0.92173325  0.12200855  0.56627046    -0.78200
C2050       C  0.90793120  0.13933948  0.57924768     1.02300
Cr2051     Cr  0.89148064  0.18624628  0.54609930     1.93700
Cr2052     Cr  0.90333677  0.15301904  0.50493278     1.93200
Cr2053     Cr  0.94647402  0.13848239  0.54258390     1.39100
O2054       O  0.91396238  0.15902812  0.53129146    -1.23300
O2055       O  0.83004112  0.45390702  0.43353888    -0.85600
O2056       O  0.85703104  0.46891486  0.46980541    -0.82600
C2057       C  0.86710681  0.46798311  0.48802869     0.97900
O2058       O  0.86909405  0.44156959  0.49715436    -0.82700
O2059       O  0.81068991  0.40517961  0.49567913    -0.85300
C2060       C  0.79060845  0.38525057  0.48892054     1.02400
O2061       O  0.79491919  0.37247860  0.47151358    -0.78100
O2062       O  0.79280740  0.42194573  0.44471387    -0.78300
C2063       C  0.80100848  0.44850396  0.43754445     1.02400
O2064       O  0.88394674  0.41072885  0.42589854    -0.85600
O2065       O  0.91160839  0.42786421  0.46244356    -0.82600
C2066       C  0.92018871  0.40387229  0.47301530     0.97900
O2067       O  0.90007383  0.38670499  0.48176010    -0.82700
O2068       O  0.84779148  0.35175434  0.48352545    -0.85300
C2069       C  0.85168127  0.33447435  0.46772249     1.02400
O2070       O  0.84724165  0.34553343  0.44973877    -0.78100
O2071       O  0.83738731  0.39189304  0.41878205    -0.78200
C2072       C  0.86505839  0.39849684  0.41317448     1.02300
Cr2073     Cr  0.86918055  0.43794053  0.44881418     1.93700
Cr2074     Cr  0.85595473  0.39762099  0.48752349     2.01200
Cr2075     Cr  0.82045519  0.38458051  0.44712990     1.39100
O2076       O  0.84865796  0.40700886  0.46118368    -1.23300
O2077       O  0.67819226  0.03406532  0.45674316    -0.85600
O2078       O  0.62933433  0.03782843  0.48455664    -0.82600
C2079       C  0.64553435  0.03730827  0.50103783     0.97900
O2080       O  0.66142862  0.06107747  0.50655888    -0.82700
O2081       O  0.69240914  0.11881694  0.50367264    -0.85300
C2082       C  0.71908075  0.11472046  0.49546065     1.02400
O2083       O  0.72131922  0.10394368  0.47736438    -0.78100
O2084       O  0.70618789  0.07177426  0.44203956    -0.78300
C2085       C  0.70248916  0.04283250  0.44696265     1.02400
O2086       O  0.64461776  0.07279876  0.42890080    -0.85600
O2087       O  0.59918149  0.08479217  0.45849861    -0.82600
C2088       C  0.58847251  0.09476675  0.47547611     0.97900
O2089       O  0.60440817  0.09109235  0.49187721    -0.82700
O2090       O  0.63663601  0.14490482  0.48566232    -0.85300
C2091       C  0.65456193  0.16416355  0.47684716     1.02400
O2092       O  0.67880576  0.15489801  0.46704045    -0.78100
O2093       O  0.66054213  0.12159779  0.43182651    -0.78200
C2094       C  0.64795939  0.09992195  0.42117486     1.02300
Cr2095     Cr  0.63912198  0.05965779  0.45805304     1.93700
Cr2096     Cr  0.64969224  0.10293712  0.49509085     1.93200
Cr2097     Cr  0.68940044  0.11158712  0.45556264     1.39100
O2098       O  0.65986999  0.09143988  0.46959397    -1.23300
O2099       O  0.57942401  0.30192716  0.56128821    -0.85600
O2100       O  0.62084823  0.28444283  0.53037688    -0.82600
C2101       C  0.62011350  0.28372486  0.51094610     0.97900
O2102       O  0.61357395  0.30783879  0.50039310    -0.82700
O2103       O  0.56226349  0.34780924  0.49995892    -0.85300
C2104       C  0.54323181  0.36952896  0.50466565     1.02400
O2105       O  0.54883569  0.38583174  0.52045433    -0.78100
O2106       O  0.54287213  0.33369344  0.54746473    -0.78300
C2107       C  0.55058679  0.30746430  0.55584760     1.02400
O2108       O  0.62910400  0.34957007  0.57393921    -0.85600
O2109       O  0.66457440  0.33310587  0.54135601    -0.82600
C2110       C  0.67299973  0.34900116  0.52576713     0.97900
O2111       O  0.65355069  0.35810988  0.51222015    -0.82700
O2112       O  0.60549040  0.39995154  0.51093545    -0.85300
C2113       C  0.61008103  0.41702958  0.52687308     1.02400
O2114       O  0.59966178  0.40848646  0.54442287    -0.78100
O2115       O  0.58085370  0.36520893  0.57574780    -0.78200
C2116       C  0.60748326  0.36236847  0.58406634     1.02300
Cr2117     Cr  0.62134135  0.31960592  0.55054575     1.93700
Cr2118     Cr  0.60781127  0.35283083  0.50809144     1.93200
Cr2119     Cr  0.57071157  0.37128458  0.54611207     1.39100
O2120       O  0.60046031  0.34724987  0.53479157    -1.23300
O2121       O  0.93501364  0.45691844  0.30637575    -0.85600
O2122       O  0.90904286  0.47011346  0.26901934    -0.82600
C2123       C  0.89989877  0.46683504  0.25065502     0.97900
O2124       O  0.89299272  0.43979196  0.24371669    -0.82700
O2125       O  0.95005343  0.40529869  0.24394998    -0.85300
C2126       C  0.97171593  0.38712503  0.25052204     1.02400
O2127       O  0.96968214  0.37452866  0.26819046    -0.78100
O2128       O  0.97233830  0.42491782  0.29524312    -0.78300
C2129       C  0.96409984  0.45126443  0.30291893     1.02400
O2130       O  0.88138231  0.41512202  0.31454126    -0.85600
O2131       O  0.85345950  0.43138432  0.27797506    -0.82600
C2132       C  0.84363577  0.40574707  0.26982515     0.97900
O2133       O  0.86287905  0.38649798  0.26190984    -0.82700
O2134       O  0.91601087  0.35154940  0.25780319    -0.85300
C2135       C  0.91397893  0.33491537  0.27389595     1.02400
O2136       O  0.91913785  0.34703851  0.29150338    -0.78100
O2137       O  0.92756937  0.39447758  0.32145403    -0.78200
C2138       C  0.89985638  0.40159740  0.32701433     1.02300
Cr2139     Cr  0.89621382  0.44087407  0.29109920     1.93700
Cr2140     Cr  0.90629046  0.39702157  0.25378941     1.93200
Cr2141     Cr  0.94493203  0.38685564  0.29318383     1.39100
O2142       O  0.91583462  0.40847004  0.27940011    -1.23300
O2143       O  0.68528652  0.29906180  0.18834005    -0.85600
O2144       O  0.65565772  0.28635085  0.22475163    -0.82600
C2145       C  0.64644427  0.29023921  0.24306176     0.97900
O2146       O  0.64054067  0.31772160  0.24978133    -0.82700
O2147       O  0.69745989  0.35322778  0.25037445    -0.85300
C2148       C  0.71953636  0.37082634  0.24396255     1.02400
O2149       O  0.71785075  0.38311818  0.22624536    -0.78100
O2150       O  0.72233115  0.33044212  0.20077375    -0.78300
C2151       C  0.71403301  0.30388218  0.19336376     1.02400
O2152       O  0.63269269  0.34066715  0.17695506    -0.85600
O2153       O  0.60227344  0.32541248  0.21302402    -0.82600
C2154       C  0.59206479  0.35061991  0.22136135     0.97900
O2155       O  0.61066186  0.37011179  0.22969394    -0.82700
O2156       O  0.66246438  0.40634899  0.23425389    -0.85300
C2157       C  0.66111929  0.42175040  0.21754869     1.02400
O2158       O  0.66908404  0.40888489  0.20065473    -0.78100
O2159       O  0.67981061  0.36042950  0.17217354    -0.78200
C2160       C  0.65225016  0.35473737  0.16561368     1.02300
Cr2161     Cr  0.64550820  0.31551487  0.20168646     1.93700
Cr2162     Cr  0.65381134  0.36050867  0.23907313     1.93200
Cr2163     Cr  0.69491432  0.36899312  0.20086964     1.39100
O2164       O  0.66464797  0.34810751  0.21387605    -1.23300
O2165       O  0.59060293  0.03775367  0.29514768    -0.85600
O2166       O  0.64261635  0.04159997  0.26966349    -0.82600
C2167       C  0.62800393  0.04115074  0.25259961     0.97900
O2168       O  0.60956152  0.06354407  0.24797807    -0.82700
O2169       O  0.57699610  0.12139351  0.25007946    -0.85300
C2170       C  0.55044279  0.12015545  0.25892134     1.02400
O2171       O  0.54835750  0.11115140  0.27732027    -0.78100
O2172       O  0.56157371  0.07445352  0.31035493    -0.78300
C2173       C  0.56519090  0.04586038  0.30398306     1.02400
O2174       O  0.62161290  0.07375227  0.32564052    -0.85600
O2175       O  0.66962745  0.08719772  0.29717382    -0.82600
C2176       C  0.68188597  0.09597150  0.28036776     0.97900
O2177       O  0.66606725  0.09573319  0.26360496    -0.82700
O2178       O  0.63231417  0.14860841  0.26771127    -0.85300
C2179       C  0.61646614  0.16864978  0.27761850     1.02400
O2180       O  0.59334361  0.15990609  0.28884429    -0.78100
O2181       O  0.60900744  0.12345027  0.32307073    -0.78200
C2182       C  0.61805527  0.10051118  0.33391134     1.02300
Cr2183     Cr  0.62969909  0.06266663  0.29611610     1.93700
Cr2184     Cr  0.62009320  0.10614841  0.25925645     1.93200
Cr2185     Cr  0.58051075  0.11574149  0.29893339     1.39100
O2186       O  0.60975266  0.09522021  0.28471461    -1.23300
O2187       O  0.83187979  0.20115658  0.18917074    -0.85600
O2188       O  0.86840556  0.21760555  0.22245905    -0.82600
C2189       C  0.87416317  0.21593527  0.24154553     0.97900
O2190       O  0.87329492  0.19002125  0.25107663    -0.82700
O2191       O  0.81834645  0.15489716  0.25227327    -0.85300
C2192       C  0.79750662  0.13496420  0.24753457     1.02400
O2193       O  0.79924092  0.12053632  0.23056627    -0.78100
O2194       O  0.79470667  0.17253895  0.20410327    -0.78300
C2195       C  0.80332366  0.19788490  0.19526054     1.02400
O2196       O  0.88145196  0.15399976  0.17799523    -0.85600
O2197       O  0.91613416  0.17240369  0.21227345    -0.82600
C2198       C  0.92538692  0.15246801  0.22563397     0.97900
O2199       O  0.90627404  0.13671834  0.23626102    -0.82700
O2200       O  0.85472324  0.09985596  0.23882723    -0.85300
C2201       C  0.85681760  0.08339709  0.22246842     1.02400
O2202       O  0.84671266  0.09395864  0.20530777    -0.78100
O2203       O  0.83237665  0.13991359  0.17523112    -0.78200
C2204       C  0.85959636  0.14134031  0.16761852     1.02300
Cr2205     Cr  0.87271753  0.18374224  0.20151245     1.93700
Cr2206     Cr  0.86202443  0.14628467  0.24243646     1.93200
Cr2207     Cr  0.82074866  0.13346481  0.20465450     1.39100
O2208       O  0.85230333  0.15489215  0.21629449    -1.23300
C2209       C  0.52101008  0.13167866  0.24885717    -0.00400
C2210       C  0.99879236  0.14988976  0.25830960    -0.12300
C2211       C  0.96907506  0.15876860  0.25101284     0.01800
C2212       C  0.95906245  0.14925668  0.23113263    -0.00500
C2213       C  0.97996787  0.13217615  0.21847381    -0.12200
C2214       C  0.51305249  0.12678743  0.22785211     0.01700
H2215       H  0.50587121  0.15293288  0.27752705     0.14700
H2216       H  0.97214894  0.12442084  0.20330158     0.14700
C2217       C  0.53479058  0.11141476  0.21395034     0.36400
C2218       C  0.94877748  0.17643905  0.26478558     0.36300
N2219       N  0.55234908  0.09917895  0.20282024    -0.44000
N2220       N  0.93298706  0.19042866  0.27616959    -0.44000
C2221       C  0.71528035  0.10498906  0.27925713    -0.00400
C2222       C  0.72292418  0.13736095  0.27937456    -0.12300
C2223       C  0.75143921  0.14794992  0.27081195     0.01800
C2224       C  0.77220752  0.12578391  0.26183773    -0.00500
C2225       C  0.76598859  0.09325789  0.26386687    -0.12200
C2226       C  0.73778394  0.08273352  0.27256004     0.01700
H2227       H  0.70562863  0.15444819  0.28473703     0.14700
H2228       H  0.78233289  0.07605073  0.25741945     0.14700
C2229       C  0.73129859  0.04914453  0.27290796     0.36400
C2230       C  0.75755128  0.18152444  0.26974684     0.36300
N2231       N  0.72620546  0.02222115  0.27325119    -0.44000
N2232       N  0.76278217  0.20839327  0.26899239    -0.44000
C2233       C  0.73746873  0.27728866  0.19127797    -0.00400
C2234       C  0.72616388  0.24594429  0.19174053    -0.12300
C2235       C  0.74684644  0.21986103  0.19268796     0.01800
C2236       C  0.78006531  0.22449874  0.19239347    -0.00500
C2237       C  0.79138127  0.25577380  0.19072530    -0.12200
C2238       C  0.77062659  0.28194908  0.19039369     0.01700
H2239       H  0.70087265  0.24170168  0.19246616     0.14700
H2240       H  0.81669769  0.25998413  0.19044833     0.14700
C2241       C  0.78416358  0.31324568  0.18907937     0.36400
C2242       C  0.73300967  0.18872687  0.19445496     0.36300
N2243       N  0.79510091  0.33830148  0.18800684    -0.44000
N2244       N  0.72181369  0.16385526  0.19605707    -0.44000
C2245       C  0.64128458  0.26193168  0.25627883    -0.00400
C2246       C  0.61233124  0.25786678  0.26665885    -0.12300
C2247       C  0.60406530  0.22832881  0.27532732     0.01800
C2248       C  0.62549517  0.20257293  0.27421309    -0.00500
C2249       C  0.65576866  0.20823006  0.26588149    -0.12200
C2250       C  0.66348408  0.23707485  0.25669710     0.01700
H2251       H  0.59523252  0.27705671  0.26671030     0.14700
H2252       H  0.67301802  0.18923381  0.26518016     0.14700
C2253       C  0.69407925  0.24015540  0.24711611     0.36400
C2254       C  0.57271294  0.22452160  0.28367282     0.36300
N2255       N  0.71855031  0.24260227  0.23937733    -0.44000
N2256       N  0.54752712  0.22147181  0.29031769    -0.44000
C2257       C  0.65150231  0.45531639  0.21900429    -0.00400
C2258       C  0.61956051  0.46216438  0.22315943    -0.12300
C2259       C  0.61062195  0.49130936  0.23188762     0.01800
C2260       C  0.63477777  0.01513447  0.23804602    -0.00500
C2261       C  0.66645541  0.00990263  0.23245861    -0.12200
C2262       C  0.67440866  0.47900354  0.22235159     0.01700
H2263       H  0.60192347  0.44387199  0.22100847     0.14700
H2264       H  0.68426426  0.02735984  0.23652629     0.14700
C2265       C  0.70740923  0.47321109  0.21797518     0.36400
C2266       C  0.57790158  0.49666089  0.23723170     0.36300
N2267       N  0.73380284  0.46849410  0.21434594    -0.44000
N2268       N  0.55185584  0.50156910  0.24168753    -0.44000
C2269       C  0.98862626  0.47625156  0.30714857    -0.00400
C2270       C  0.98176992  0.00547841  0.30722714    -0.12300
C2271       C  0.50859413  0.02669860  0.31270315     0.01800
C2272       C  0.54020554  0.02070086  0.30659777    -0.00500
C2273       C  0.54439920  0.49462475  0.30920097    -0.12200
C2274       C  0.52145753  0.47061867  0.31015988     0.01700
H2275       H  0.95684214  0.01166151  0.30667623     0.14700
H2276       H  0.56908540  0.48854689  0.31174785     0.14700
C2277       C  0.53171279  0.43904984  0.31561589     0.36400
C2278       C  0.99320850  0.06215772  0.30466264     0.36300
N2279       N  0.53990814  0.41381290  0.32016284    -0.44000
N2280       N  0.98404937  0.08787507  0.30286201    -0.44000
C2281       C  0.55792070  0.35709213  0.22315271    -0.00400
C2282       C  0.54740121  0.38856230  0.22085394    -0.12300
C2283       C  0.01867742  0.39984046  0.22798045     0.01800
C2284       C  0.99883148  0.37769665  0.23761090    -0.00500
C2285       C  0.50835365  0.34421224  0.23961359    -0.12200
C2286       C  0.53714528  0.33431964  0.23127150     0.01700
H2287       H  0.56290967  0.40595918  0.21399702     0.14700
H2288       H  0.49350424  0.32704446  0.24728998     0.14700
C2289       C  0.54568335  0.30123323  0.23273216     0.36400
C2290       C  0.01021538  0.43294657  0.22683163     0.36300
N2291       N  0.55217295  0.27462186  0.23371623    -0.44000
N2292       N  0.00328597  0.45944757  0.22585672    -0.44000
C2293       C  0.80936252  0.39791434  0.26841260    -0.00400
C2294       C  0.80065729  0.36567692  0.26821013    -0.12300
C2295       C  0.77008031  0.35614664  0.26241547     0.01800
C2296       C  0.74751582  0.37907106  0.25667881    -0.00500
C2297       C  0.75527010  0.41135945  0.25865208    -0.12200
C2298       C  0.78580241  0.42098284  0.26455966     0.01700
H2299       H  0.81837813  0.34768263  0.27141387     0.14700
H2300       H  0.73796832  0.42914449  0.25416092     0.14700
C2301       C  0.79289389  0.45444510  0.26454631     0.36400
C2302       C  0.76351279  0.32274645  0.26045299     0.36300
N2303       N  0.79843001  0.48129150  0.26449011    -0.44000
N2304       N  0.75843287  0.29592766  0.25888027    -0.44000
C2305       C  0.89372578  0.49523031  0.23808774    -0.00400
C2306       C  0.86534696  0.49664291  0.22664568    -0.12300
C2307       C  0.85535885  0.02363724  0.21974960     0.01800
C2308       C  0.87153296  0.05189394  0.22448026    -0.00500
C2309       C  0.90074316  0.05033602  0.23490310    -0.12200
C2310       C  0.91252596  0.02157562  0.24230473     0.01700
H2311       H  0.85062892  0.47570384  0.22523660     0.14700
H2312       H  0.91372762  0.07195890  0.23812832     0.14700
C2313       C  0.94289041  0.02142517  0.25268567     0.36400
C2314       C  0.82542101  0.02389796  0.20891592     0.36300
N2315       N  0.96748114  0.02149473  0.26066148    -0.44000
N2316       N  0.80136082  0.02372312  0.20026798    -0.44000
C2317       C  0.90742355  0.30103565  0.27061525    -0.00400
C2318       C  0.92483242  0.28628052  0.25494281    -0.12300
C2319       C  0.91435415  0.25843163  0.24570433     0.01800
C2320       C  0.88596023  0.24434734  0.25231280    -0.00500
C2321       C  0.86981103  0.25736344  0.26928221    -0.12200
C2322       C  0.88022613  0.28591240  0.27836342     0.01700
H2323       H  0.94577231  0.29774498  0.24893131     0.14700
H2324       H  0.84837019  0.24613666  0.27473365     0.14700
C2325       C  0.86158121  0.30037661  0.29444067     0.36400
C2326       C  0.93310586  0.24515452  0.22919105     0.36300
N2327       N  0.84671342  0.31205289  0.30735424    -0.44000
N2328       N  0.94842979  0.23487483  0.21601061    -0.44000
C2329       C  0.63763550  0.10448409  0.39929998    -0.00400
C2330       C  0.61622865  0.08223339  0.39105161    -0.12300
C2331       C  0.60890731  0.08144851  0.37002093     0.01800
C2332       C  0.62258882  0.10366506  0.35653066    -0.00500
C2333       C  0.64222879  0.12744617  0.36477938    -0.12200
C2334       C  0.65008499  0.12788414  0.38598681     0.01700
H2335       H  0.60570558  0.06455227  0.40101072     0.14700
H2336       H  0.65271526  0.14468514  0.35449432     0.14700
C2337       C  0.67235733  0.15129407  0.39329883     0.36400
C2338       C  0.58727083  0.05733838  0.36270938     0.36300
N2339       N  0.69030238  0.17002565  0.39912727    -0.44000
N2340       N  0.56996807  0.03793319  0.35699534    -0.44000
C2341       C  0.64864532  0.19780716  0.48088164    -0.00400
C2342       C  0.66890625  0.21272002  0.49499509    -0.12300
C2343       C  0.65967876  0.24056037  0.50495786     0.01800
C2344       C  0.62999528  0.25447265  0.50033620    -0.00500
C2345       C  0.61063643  0.24080760  0.48505955    -0.12200
C2346       C  0.61949725  0.21220658  0.47560755     0.01700
H2347       H  0.69100217  0.20131816  0.49940201     0.14700
H2348       H  0.58811200  0.25173058  0.48117000     0.14700
C2349       C  0.59812119  0.19755673  0.46096146     0.36400
C2350       C  0.68093690  0.25398910  0.52019032     0.36300
N2351       N  0.58104896  0.18578844  0.44919498    -0.44000
N2352       N  0.69799262  0.26450090  0.53246215    -0.44000
C2353       C  0.64521896  0.00800948  0.51301177    -0.00400
C2354       C  0.65873141  0.48187291  0.50250436    -0.12300
C2355       C  0.64924075  0.45166812  0.50827209     0.01800
C2356       C  0.62610681  0.44782523  0.52390529    -0.00500
C2357       C  0.61553271  0.47472586  0.53472069    -0.12200
C2358       C  0.62628188  0.00438397  0.53068150     0.01700
H2359       H  0.67456803  0.48469848  0.48947661     0.14700
H2360       H  0.59809038  0.47218038  0.54682206     0.14700
C2361       C  0.61452649  0.03165219  0.54173787     0.36400
C2362       C  0.66234675  0.42572330  0.49651112     0.36300
N2363       N  0.60530434  0.05360952  0.55060814    -0.44000
N2364       N  0.67351202  0.40615544  0.48632371    -0.44000
C2365       C  0.87421496  0.39438038  0.39121408    -0.00400
C2366       C  0.85041102  0.39559504  0.37593754    -0.12300
C2367       C  0.85795472  0.39641862  0.35490310     0.01800
C2368       C  0.89004670  0.39613123  0.34874200    -0.00500
C2369       C  0.91368256  0.39251072  0.36398036    -0.12200
C2370       C  0.90610063  0.39160789  0.38500050     0.01700
H2371       H  0.82575139  0.39711743  0.38042635     0.14700
H2372       H  0.93839117  0.39148783  0.35955972     0.14700
C2373       C  0.93154378  0.38769876  0.39980266     0.36400
C2374       C  0.83220681  0.39757767  0.34010024     0.36300
N2375       N  0.95190016  0.38445481  0.41167208    -0.44000
N2376       N  0.81157132  0.39842787  0.32825442    -0.44000
C2377       C  0.77588816  0.47337621  0.43482496    -0.00400
C2378       C  0.74400465  0.46393170  0.43618746    -0.12300
C2379       C  0.71940027  0.48601719  0.43818227     0.01800
C2380       C  0.72719042  0.01911633  0.44145753    -0.00500
C2381       C  0.75893444  0.02883438  0.43996637    -0.12200
C2382       C  0.78356365  0.00667815  0.43771879     0.01700
H2383       H  0.73817964  0.43892106  0.43648419     0.14700
H2384       H  0.76474106  0.05374298  0.44157083     0.14700
C2385       C  0.81565864  0.01838518  0.43745417     0.36400
C2386       C  0.68749226  0.47398251  0.43970744     0.36300
N2387       N  0.84130466  0.02797691  0.43715734    -0.44000
N2388       N  0.66198887  0.46420658  0.44092716    -0.44000
C2389       C  0.76292328  0.37406981  0.50123429    -0.00400
C2390       C  0.74985436  0.39302909  0.51696432    -0.12300
C2391       C  0.72159700  0.38401944  0.52687696     0.01800
C2392       C  0.70661599  0.35525901  0.52149223    -0.00500
C2393       C  0.72070660  0.33549076  0.50694927    -0.12200
C2394       C  0.74818865  0.34443885  0.49672721     0.01700
H2395       H  0.76068897  0.41558415  0.52074705     0.14700
H2396       H  0.70876165  0.31379953  0.50238535     0.14700
C2397       C  0.75925755  0.32288128  0.48093433     0.36400
C2398       C  0.70741526  0.40530235  0.54165086     0.36300
N2399       N  0.76746576  0.30554328  0.46815348    -0.44000
N2400       N  0.69601110  0.42233051  0.55351654    -0.44000
C2401       C  0.95407045  0.39561439  0.47654010    -0.00400
C2402       C  0.96223790  0.36333480  0.47863628    -0.12300
C2403       C  0.49248120  0.35406119  0.48638610     0.01800
C2404       C  0.51477879  0.37724616  0.49214597    -0.00500
C2405       C  0.50753695  0.40939683  0.48872427    -0.12200
C2406       C  0.97712300  0.41869301  0.48121713     0.01700
H2407       H  0.94476678  0.34530717  0.47505110     0.14700
H2408       H  0.52466486  0.42738489  0.49305939     0.14700
C2409       C  0.97031307  0.45211700  0.47939477     0.36400
C2410       C  0.49845509  0.32077546  0.48985618     0.36300
N2411       N  0.96478681  0.47888806  0.47789961    -0.44000
N2412       N  0.50325132  0.29412575  0.49270894    -0.44000
C2413       C  0.98016528  0.23167498  0.55966966    -0.00400
C2414       C  0.97088816  0.26338869  0.55649844    -0.12300
C2415       C  0.99283043  0.28830734  0.55644575     0.01800
C2416       C  0.52554873  0.28241351  0.55879902    -0.00500
C2417       C  0.53451548  0.25096252  0.56338744    -0.12200
C2418       C  0.51222138  0.22604079  0.56370348     0.01700
H2419       H  0.94621827  0.26891363  0.55341511     0.14700
H2420       H  0.55928862  0.24548818  0.56609860     0.14700
C2421       C  0.52365918  0.19453831  0.56820088     0.36400
C2422       C  0.98059995  0.31987039  0.55301105     0.36300
N2423       N  0.53294932  0.16933977  0.57187126    -0.44000
N2424       N  0.97064192  0.34509526  0.55027132    -0.44000
C2425       C  0.00135474  0.13843993  0.48969717    -0.00400
C2426       C  0.50096220  0.11360872  0.47571644    -0.12300
C2427       C  0.52953686  0.10005036  0.46909583     0.01800
C2428       C  0.55827971  0.11194328  0.47695801    -0.00500
C2429       C  0.55812234  0.13967929  0.48894449    -0.12200
C2430       C  0.52987635  0.15381212  0.49492252     0.01700
H2431       H  0.97875118  0.10071023  0.47248615     0.14700
H2432       H  0.58013533  0.14969725  0.49450965     0.14700
C2433       C  0.03214183  0.18196098  0.50646935     0.36400
C2434       C  0.52871494  0.07243069  0.45591759     0.36300
N2435       N  0.03385449  0.20480963  0.51631963    -0.44000
N2436       N  0.52815740  0.05035830  0.44528315    -0.44000
C2437       C  0.80635683  0.15126454  0.51976367    -0.00400
C2438       C  0.78837489  0.13092347  0.53228428    -0.12300
C2439       C  0.75892170  0.11916987  0.52523996     0.01800
C2440       C  0.74780248  0.12746548  0.50535146    -0.00500
C2441       C  0.76457900  0.14935658  0.49370695    -0.12200
C2442       C  0.79318587  0.16151215  0.50063437     0.01700
H2443       H  0.79798935  0.12291363  0.54694242     0.14700
H2444       H  0.75539196  0.15670876  0.47874346     0.14700
C2445       C  0.80878627  0.18345471  0.48693968     0.36400
C2446       C  0.74144302  0.09754179  0.53805491     0.36300
N2447       N  0.82086597  0.20050745  0.47546561    -0.44000
N2448       N  0.72734604  0.08027301  0.54835707    -0.44000
C2449       C  0.87953133  0.49810549  0.49713936    -0.00400
C2450       C  0.89167894  0.01897413  0.48390945    -0.12300
C2451       C  0.90414477  0.04795676  0.49004677     0.01800
C2452       C  0.90718662  0.05523187  0.51121436    -0.00500
C2453       C  0.89927782  0.03210148  0.52589606    -0.12200
C2454       C  0.88679766  0.00256659  0.51961730     0.01700
H2455       H  0.88552372  0.51806273  0.46660269     0.14700
H2456       H  0.90129767  0.03767637  0.54220220     0.14700
C2457       C  0.87606224  0.48053285  0.53378823     0.36400
C2458       C  0.91266384  0.07027345  0.47410488     0.36300
N2459       N  0.86908797  0.46207987  0.54613837    -0.44000
N2460       N  0.91911243  0.08788129  0.46112221    -0.44000
C2461       C  0.87936174  0.24558865  0.49248532    -0.00400
C2462       C  0.89629006  0.25745990  0.47545751    -0.12300
C2463       C  0.88609676  0.28516420  0.46516810     0.01800
C2464       C  0.85847757  0.30086859  0.47184359    -0.00500
C2465       C  0.84037482  0.28737906  0.48747599    -0.12200
C2466       C  0.85032303  0.26046835  0.49786535     0.01700
H2467       H  0.91812860  0.24602988  0.47080285     0.14700
H2468       H  0.81925997  0.29949199  0.49279322     0.14700
C2469       C  0.82994388  0.24957476  0.51427642     0.36400
C2470       C  0.90520796  0.29807822  0.44883933     0.36300
N2471       N  0.81345756  0.24116765  0.52737889    -0.44000
N2472       N  0.92045771  0.30836415  0.43567218    -0.44000
C2473       C  0.97925528  0.27277352  0.94114250    -0.00400
C2474       C  0.96946728  0.24097790  0.93935607    -0.12300
C2475       C  0.48905189  0.21473039  0.93843123     0.01800
C2476       C  0.52204032  0.22073844  0.93780806    -0.00500
C2477       C  0.53192506  0.25261118  0.93719735    -0.12200
C2478       C  0.51020900  0.27786789  0.93874967     0.01700
H2479       H  0.94443841  0.23537221  0.93985218     0.14700
H2480       H  0.55697135  0.25800051  0.93631272     0.14700
C2481       C  0.52240062  0.30975120  0.93778120     0.36400
C2482       C  0.47649697  0.18296940  0.93730524     0.36300
N2483       N  0.53223543  0.33527657  0.93684931    -0.44000
N2484       N  0.96925763  0.15879907  0.93369446    -0.44000
C2485       C  0.64379628  0.36512468  0.14442261    -0.00400
C2486       C  0.65080419  0.39645176  0.13890606    -0.12300
C2487       C  0.64828249  0.40670722  0.11839843     0.01800
C2488       C  0.63868072  0.38528702  0.10275152    -0.00500
C2489       C  0.63042550  0.35418769  0.10841862    -0.12200
C2490       C  0.63270921  0.34404706  0.12906785     0.01700
H2491       H  0.65956565  0.41271602  0.15061504     0.14700
H2492       H  0.62336621  0.33739999  0.09655365     0.14700
C2493       C  0.62604445  0.31133199  0.13378266     0.36400
C2494       C  0.65867355  0.43845146  0.11368352     0.36300
N2495       N  0.62079772  0.28505494  0.13748316    -0.44000
N2496       N  0.66721267  0.46382282  0.10993948    -0.44000
C2497       C  0.55370206  0.38971740  0.01823659    -0.00400
C2498       C  0.52765076  0.39372170  0.03141636    -0.12300
C2499       C  0.99649954  0.37981187  0.02688546     0.01800
C2500       C  0.99306004  0.36257279  0.00835083    -0.00500
C2501       C  0.52058100  0.35874886  0.99495865    -0.12200
C2502       C  0.54991890  0.37139606  0.99993520     0.01700
H2503       H  0.53019009  0.40770116  0.04539957     0.14700
H2504       H  0.51766782  0.34582372  0.98054663     0.14700
C2505       C  0.57490405  0.36624931  0.98510133     0.36400
C2506       C  0.96919183  0.39027581  0.03834639     0.36300
N2507       N  0.59453117  0.36200057  0.97299758    -0.44000
N2508       N  0.94720462  0.39883851  0.04737851    -0.44000
C2509       C  0.74462949  0.37096539  0.99969496    -0.00400
C2510       C  0.75332078  0.37825863  0.97936034    -0.12300
C2511       C  0.78242683  0.36770291  0.97157021     0.01800
C2512       C  0.80210798  0.34842378  0.98393898    -0.00500
C2513       C  0.79252703  0.33971632  0.00370870    -0.12200
C2514       C  0.76434047  0.35115266  0.01181119     0.01700
H2515       H  0.73821776  0.39340709  0.97002085     0.14700
H2516       H  0.80818813  0.32559222  0.01337701     0.14700
C2517       C  0.75677317  0.34285045  0.03286346     0.36400
C2518       C  0.79236515  0.37800526  0.95137450     0.36300
N2519       N  0.75093463  0.33654977  0.04980677    -0.44000
N2520       N  0.80041790  0.38627565  0.93520543    -0.44000
C2521       C  0.61610739  0.24188257  0.00411923    -0.00400
C2522       C  0.64530385  0.24510406  0.01448608    -0.12300
C2523       C  0.65571968  0.27482269  0.02177203     0.01800
C2524       C  0.63615847  0.30181798  0.01931548    -0.00500
C2525       C  0.60531306  0.29727958  0.01133443    -0.12200
C2526       C  0.59549844  0.26806812  0.00336589     0.01700
H2527       H  0.66098561  0.22480368  0.01559969     0.14700
H2528       H  0.58901623  0.31703244  0.01050092     0.14700
C2529       C  0.56422940  0.26569396  0.99431665     0.36400
C2530       C  0.68713062  0.27692789  0.03049040     0.36300
N2531       N  0.53908066  0.26391693  0.98721241    -0.44000
N2532       N  0.71238752  0.27804389  0.03747112    -0.44000
C2533       C  0.63808800  0.49200978  0.98896905    -0.00400
C2534       C  0.61105321  0.49341806  0.97619964    -0.12300
C2535       C  0.60290993  0.02104529  0.96569132     0.01800
C2536       C  0.61867515  0.04959489  0.97030634    -0.00500
C2537       C  0.64614000  0.04859894  0.98271144    -0.12200
C2538       C  0.65677149  0.02027073  0.99159139     0.01700
H2539       H  0.59642288  0.47250372  0.97431349     0.14700
H2540       H  0.65796893  0.07048242  0.98681622     0.14700
C2541       C  0.68398110  0.02105530  0.00520051     0.36400
C2542       C  0.57400008  0.02098007  0.95369157     0.36300
N2543       N  0.70592674  0.02182261  0.01597884    -0.44000
N2544       N  0.55075138  0.02102364  0.94413071    -0.44000
C2545       C  0.86550894  0.11039322  0.10410058    -0.00400
C2546       C  0.84902471  0.09250271  0.11864338    -0.12300
C2547       C  0.84824237  0.10139955  0.13943382     0.01800
C2548       C  0.86459446  0.12874771  0.14631945    -0.00500
C2549       C  0.88287835  0.14567232  0.13194783    -0.12200
C2550       C  0.88304351  0.13696555  0.11086093     0.01700
H2551       H  0.83524890  0.07224787  0.11349660     0.14700
H2552       H  0.89527867  0.16686394  0.13689483     0.14700
C2553       C  0.89903775  0.15703404  0.09623885     0.36400
C2554       C  0.82929915  0.08246691  0.15315171     0.36300
N2555       N  0.91165671  0.17324314  0.08448691    -0.44000
N2556       N  0.81372744  0.06727417  0.16390040    -0.44000
C2557       C  0.72264918  0.47689888  0.06191777    -0.00400
C2558       C  0.71712135  0.01097560  0.06463092    -0.12300
C2559       C  0.74018699  0.03493166  0.06462668     0.01800
C2560       C  0.77239756  0.02736229  0.06108854    -0.00500
C2561       C  0.77851954  0.49280748  0.06192823    -0.12200
C2562       C  0.75525874  0.46884513  0.06238070     0.01700
H2563       H  0.69245963  0.01748374  0.06659470     0.14700
H2564       H  0.80327775  0.48608337  0.06111996     0.14700
C2565       C  0.76573262  0.43629258  0.06212507     0.36400
C2566       C  0.72996778  0.06715131  0.06818370     0.36300
N2567       N  0.77427619  0.41022538  0.06203646    -0.44000
N2568       N  0.72177767  0.09295467  0.07109248    -0.44000
C2569       C  0.70129086  0.14571372  0.97587387    -0.00400
C2570       C  0.71157516  0.11415100  0.97357673    -0.12300
C2571       C  0.74100672  0.10428064  0.98138196     0.01800
C2572       C  0.76022712  0.12622103  0.99198026    -0.00500
C2573       C  0.75133658  0.15836053  0.99230231    -0.12200
C2574       C  0.72230385  0.16832289  0.98411256     0.01700
H2575       H  0.69590165  0.09687315  0.96653670     0.14700
H2576       H  0.76656240  0.17558927  0.99986035     0.14700
C2577       C  0.71389711  0.20140040  0.98568768     0.36400
C2578       C  0.74976356  0.07130339  0.97967403     0.36300
N2579       N  0.70757897  0.22803869  0.98675528    -0.44000
N2580       N  0.75683360  0.04489502  0.97816969    -0.44000
C2581       C  0.50814382  0.12153932  0.99985682    -0.00400
C2582       C  0.98355415  0.11315216  0.98595134    -0.12300
C2583       C  0.95453088  0.10311527  0.99345725     0.01800
C2584       C  0.94917075  0.10193814  0.01493334    -0.00500
C2585       C  0.97391192  0.11024538  0.02853945    -0.12200
C2586       C  0.50319428  0.12181600  0.02147339     0.01700
H2587       H  0.98666686  0.11413983  0.96933613     0.14700
H2588       H  0.96982371  0.10988001  0.04505493     0.14700
C2589       C  0.52735397  0.13285417  0.03556367     0.36400
C2590       C  0.93039230  0.09447427  0.97852532     0.36300
N2591       N  0.54675578  0.14173362  0.04686245    -0.44000
N2592       N  0.91132101  0.08774227  0.96637974    -0.44000
C2593       C  0.86842119  0.00646374  0.99371927    -0.00400
C2594       C  0.89564162  0.50356339  0.98116018    -0.12300
C2595       C  0.90628046  0.47457443  0.97290219     0.01800
C2596       C  0.88866875  0.44677305  0.97624473    -0.00500
C2597       C  0.85947111  0.44899259  0.98642052    -0.12200
C2598       C  0.84888659  0.47775837  0.99469394     0.01700
H2599       H  0.91339492  0.02400063  0.98302400     0.14700
H2600       H  0.84565711  0.42773586  0.98895101     0.14700
C2601       C  0.81723368  0.98183821  0.00349707     0.36400
C2602       C  0.93660639  0.47335330  0.96277853     0.36300
N2603       N  0.79210644  0.98350575  0.01044209    -0.44000
N2604       N  0.96094372  0.47229921  0.95468582    -0.44000
C2605       C  0.88529838  0.25643213  0.01247664    -0.00400
C2606       C  0.85722557  0.25533909  0.02407594    -0.12300
C2607       C  0.84595137  0.22648114  0.03178287     0.01800
C2608       C  0.86313439  0.19850263  0.02799887    -0.00500
C2609       C  0.89280278  0.20023441  0.01846608    -0.12200
C2610       C  0.90410333  0.22890275  0.01080711     0.01700
H2611       H  0.84272673  0.27644073  0.02561313     0.14700
H2612       H  0.90635764  0.17875279  0.01587851     0.14700
C2613       C  0.93445665  0.22916904  0.00061221     0.36400
C2614       C  0.81542807  0.22564617  0.04167794     0.36300
N2615       N  0.95880627  0.22939586  0.99250790    -0.44000
N2616       N  0.79095980  0.22492949  0.04961102    -0.44000
C2617       C  0.86543240  0.35057698  0.85726581    -0.00400
C2618       C  0.85262087  0.32645007  0.86949671    -0.12300
C2619       C  0.85856048  0.32514949  0.89072234     0.01800
C2620       C  0.87838867  0.34809615  0.90011724    -0.00500
C2621       C  0.89035985  0.37287139  0.88797252    -0.12200
C2622       C  0.88373757  0.37449207  0.86674218     0.01700
H2623       H  0.83824686  0.30813187  0.86233467     0.14700
H2624       H  0.90540143  0.39072896  0.89501592     0.14700
C2625       C  0.89739523  0.39989943  0.85490679     0.36400
C2626       C  0.84530524  0.29895542  0.90210355     0.36300
N2627       N  0.90829074  0.42035083  0.84545730    -0.44000
N2628       N  0.83458722  0.27801438  0.91119556    -0.44000
C2629       C  0.63894738  0.14439228  0.84974371    -0.00400
C2630       C  0.66173492  0.13793532  0.86507258    -0.12300
C2631       C  0.65364673  0.13806990  0.88615161     0.01800
C2632       C  0.62203773  0.14412468  0.89219281    -0.00500
C2633       C  0.59899118  0.14859005  0.87669207    -0.12200
C2634       C  0.60719233  0.14920038  0.85572604     0.01700
H2635       H  0.68618785  0.13421515  0.86063748     0.14700
H2636       H  0.57459905  0.15304616  0.88099711     0.14700
C2637       C  0.58250976  0.15515240  0.84067117     0.36400
C2638       C  0.67820510  0.13190255  0.90123460     0.36300
N2639       N  0.56243656  0.15990122  0.82881476    -0.44000
N2640       N  0.69788595  0.12692841  0.91333034    -0.44000
C2641       C  0.73053795  0.23095787  0.80395907    -0.00400
C2642       C  0.72358058  0.26352451  0.80198435    -0.12300
C2643       C  0.74760487  0.28663990  0.80189236     0.01800
C2644       C  0.77974570  0.27757059  0.80395459    -0.00500
C2645       C  0.78658310  0.24520482  0.80687417    -0.12200
C2646       C  0.76264284  0.22211345  0.80700625     0.01700
H2647       H  0.69922340  0.27101220  0.79973231     0.14700
H2648       H  0.81102202  0.23768288  0.80868692     0.14700
C2649       C  0.77226176  0.18944903  0.80933367     0.36400
C2650       C  0.73853214  0.31917263  0.79832120     0.36300
N2651       N  0.78015990  0.16333075  0.81120983    -0.44000
N2652       N  0.73107832  0.34519273  0.79540549    -0.44000
C2653       C  0.61198701  0.37378355  0.60572636    -0.00400
C2654       C  0.58947436  0.39524543  0.61344341    -0.12300
C2655       C  0.58914262  0.40394643  0.63423071     0.01800
C2656       C  0.61178926  0.39129409  0.64805108    -0.00500
C2657       C  0.63592462  0.37176107  0.64026942    -0.12200
C2658       C  0.63623836  0.36290965  0.61924074     0.01700
H2659       H  0.57132743  0.40479649  0.60326786     0.14700
H2660       H  0.65353941  0.36211940  0.65079043     0.14700
C2661       C  0.66070102  0.34152662  0.61232506     0.36400
C2662       C  0.56491055  0.42579823  0.64099917     0.36300
N2663       N  0.68040793  0.32442953  0.60683685    -0.44000
N2664       N  0.54543555  0.44333081  0.64624327    -0.44000
C2665       C  0.96063033  0.35332174  0.78151649    -0.00400
C2666       C  0.98065371  0.32967427  0.77387659    -0.12300
C2667       C  0.51056877  0.33793336  0.76522660     0.01800
C2668       C  0.52082309  0.36983790  0.76486666    -0.00500
C2669       C  0.50283345  0.39281103  0.77531987    -0.12200
C2670       C  0.97233607  0.38447238  0.78360760     0.01700
H2671       H  0.97208924  0.30551179  0.77267168     0.14700
H2672       H  0.51074866  0.41722696  0.77560073     0.14700
C2673       C  0.95357448  0.40892490  0.79319108     0.36400
C2674       C  0.52956049  0.31253408  0.75684795     0.36300
N2675       N  0.93880927  0.42858391  0.80108309    -0.44000
N2676       N  0.54467444  0.29194885  0.75035990    -0.44000
C2677       C  0.76795718  0.37918017  0.74542413    -0.00400
C2678       C  0.75539135  0.40934476  0.74946444    -0.12300
C2679       C  0.72563208  0.41829896  0.74189213     0.01800
C2680       C  0.70757239  0.39670106  0.73010747    -0.00500
C2681       C  0.72087302  0.36705918  0.72509147    -0.12200
C2682       C  0.75106835  0.35833443  0.73240932     0.01700
H2683       H  0.76840637  0.42558501  0.75937170     0.14700
H2684       H  0.70699310  0.35012277  0.71626893     0.14700
C2685       C  0.76313604  0.32717020  0.72765466     0.36400
C2686       C  0.71326833  0.44861471  0.74825509     0.36300
N2687       N  0.77290532  0.30222555  0.72380071    -0.44000
N2688       N  0.70431492  0.47306756  0.75381760    -0.44000
C2689       C  0.61972504  0.29834875  0.72246008    -0.00400
C2690       C  0.64979096  0.29474420  0.73151433    -0.12300
C2691       C  0.66130504  0.26473621  0.73669008     0.01800
C2692       C  0.64205233  0.23802700  0.73349853    -0.00500
C2693       C  0.61357930  0.24124426  0.72236473    -0.12200
C2694       C  0.60256665  0.27124709  0.71641484     0.01700
H2695       H  0.66355826  0.31553503  0.73557726     0.14700
H2696       H  0.59866824  0.22066233  0.71990657     0.14700
C2697       C  0.57230308  0.27376469  0.70604918     0.36400
C2698       C  0.69196517  0.26210059  0.74650237     0.36300
N2699       N  0.54805464  0.27572089  0.69771322    -0.44000
N2700       N  0.71682449  0.26010143  0.75399576    -0.44000
C2701       C  0.63172686  0.49197186  0.75512445    -0.00400
C2702       C  0.62831592  0.49873248  0.77632039    -0.12300
C2703       C  0.64052411  0.02767916  0.78265531     0.01800
C2704       C  0.65099747  0.05041722  0.76829533    -0.00500
C2705       C  0.65237345  0.04237828  0.74738379    -0.12200
C2706       C  0.64227780  0.01294951  0.74032494     0.01700
H2707       H  0.61665728  0.48175478  0.78623130     0.14700
H2708       H  0.66060117  0.05976397  0.73630585     0.14700
C2709       C  0.64518429  0.00668428  0.71842364     0.36400
C2710       C  0.63832381  0.03540669  0.80430789     0.36300
N2711       N  0.64740081  0.00163348  0.70090917    -0.44000
N2712       N  0.63656127  0.04174624  0.82166612    -0.44000
C2713       C  0.90149687  0.11336863  0.64414498    -0.00400
C2714       C  0.90885026  0.09018732  0.62929994    -0.12300
C2715       C  0.91035113  0.09758673  0.60813659     0.01800
C2716       C  0.90390928  0.12887223  0.60126125    -0.00500
C2717       C  0.89495963  0.15157785  0.61615830    -0.12200
C2718       C  0.89388130  0.14420895  0.63729661     0.01700
H2719       H  0.91474971  0.06638441  0.63433443     0.14700
H2720       H  0.88953408  0.17561032  0.61140392     0.14700
C2721       C  0.88443730  0.16870256  0.65161938     0.36400
C2722       C  0.91909028  0.07253754  0.59404513     0.36300
N2723       N  0.87673127  0.18831716  0.66306503    -0.44000
N2724       N  0.92620202  0.05235461  0.58285556    -0.44000
C2725       C  0.97811641  0.01798266  0.69217056    -0.00400
C2726       C  0.96964187  0.48724854  0.69346982    -0.12300
C2727       C  0.49147690  0.46274744  0.69443508     0.01800
C2728       C  0.52427490  0.46942808  0.69427021    -0.00500
C2729       C  0.53312801  0.99868450  0.69337304    -0.12200
C2730       C  0.51151241  0.02391942  0.69147331     0.01700
H2731       H  0.94463199  0.48155774  0.69406433     0.14700
H2732       H  0.55823787  0.00389590  0.69430273     0.14700
C2733       C  0.52397678  0.05573785  0.69115359     0.36400
C2734       C  0.97960568  0.43051699  0.69637931     0.36300
N2735       N  0.53409094  0.08119927  0.69099834    -0.44000
N2736       N  0.96991223  0.40493732  0.69730241    -0.44000
C2737       C  0.89242906  0.00957401  0.75752196    -0.00400
C2738       C  0.91113216  0.48391361  0.75018080    -0.12300
C2739       C  0.90418321  0.45352211  0.75695923     0.01800
C2740       C  0.87952286  0.44875378  0.77152719    -0.00500
C2741       C  0.86506520  0.47533615  0.78058813    -0.12200
C2742       C  0.87111102  0.00620234  0.77401955     0.01700
H2743       H  0.92836065  0.48722694  0.73798693     0.14700
H2744       H  0.84660968  0.47217740  0.79196354     0.14700
C2745       C  0.85520823  0.03333862  0.78277509     0.36400
C2746       C  0.92182853  0.42783929  0.74766748     0.36300
N2747       N  0.84262167  0.05512371  0.78988943    -0.44000
N2748       N  0.93584583  0.40736724  0.74006312    -0.44000
C2749       C  0.88243578  0.25567866  0.74626322    -0.00400
C2750       C  0.88431040  0.22968857  0.75948901    -0.12300
C2751       C  0.89419841  0.20050516  0.75238801     0.01800
C2752       C  0.90194485  0.19650067  0.73134069    -0.00500
C2753       C  0.89988779  0.22235412  0.71778697    -0.12200
C2754       C  0.89012567  0.25216784  0.72518477     0.01700
H2755       H  0.87851716  0.23237331  0.77573106     0.14700
H2756       H  0.90522872  0.21912589  0.70155789     0.14700
C2757       C  0.88911075  0.27874396  0.71121440     0.36400
C2758       C  0.89609203  0.17499769  0.76726798     0.36300
N2759       N  0.88830980  0.30007271  0.70001490    -0.44000
N2760       N  0.89730408  0.15476310  0.77928583    -0.44000
C2761       C  0.55581804  0.14311512  0.77080555    -0.00400
C2762       C  0.55293401  0.11193833  0.76346478    -0.12300
C2763       C  0.02411943  0.10016470  0.75662284     0.01800
C2764       C  0.99762274  0.12056550  0.75612723    -0.00500
C2765       C  0.49959300  0.15105272  0.76447333    -0.12200
C2766       C  0.52864659  0.16235911  0.77214455     0.01700
H2767       H  0.57372530  0.09686280  0.76270100     0.14700
H2768       H  0.47919386  0.16671631  0.76421956     0.14700
C2769       C  0.53066043  0.19456598  0.77957089     0.36400
C2770       C  0.02205326  0.06781379  0.74941437     0.36300
N2771       N  0.53235810  0.22038505  0.78552236    -0.44000
N2772       N  0.02034215  0.04177854  0.74387958    -0.44000
C2773       C  0.80539580  0.10818028  0.72287438    -0.00400
C2774       C  0.80255080  0.13848519  0.73167494    -0.12300
C2775       C  0.77421096  0.14841916  0.74071338     0.01800
C2776       C  0.74803084  0.12777517  0.74104414    -0.00500
C2777       C  0.75002895  0.09852279  0.73063553    -0.12200
C2778       C  0.77860095  0.08847164  0.72175681     0.01700
H2779       H  0.82314070  0.15375499  0.73259603     0.14700
H2780       H  0.72992588  0.08256624  0.73069883     0.14700
C2781       C  0.78073008  0.05683369  0.71336569     0.36400
C2782       C  0.77275967  0.17970702  0.74973889     0.36300
N2783       N  0.78252729  0.03143007  0.70670806    -0.44000
N2784       N  0.77170064  0.20489682  0.75679419    -0.44000
O2785       O  0.92774020  0.53665254  0.70074682    -0.85600
O2786       O  0.88032369  0.53977789  0.72857141    -0.82600
C2787       C  0.89581738  0.53881772  0.74544890     0.97900
O2788       O  0.91189360  0.56215266  0.75158922    -0.82700
O2789       O  0.94305799  0.62022242  0.75023996    -0.85300
C2790       C  0.97023533  0.61321221  0.74377239     1.02400
O2791       O  0.97341135  0.60199747  0.72592542    -0.78100
O2792       O  0.96014195  0.57331485  0.68939872    -0.78300
C2793       C  0.95447672  0.54448560  0.69382737     1.02400
O2794       O  0.89646622  0.58002112  0.67352363    -0.85600
O2795       O  0.84978089  0.58933044  0.70425117    -0.82600
C2796       C  0.83857125  0.59584858  0.72186541     0.97900
O2797       O  0.85540111  0.59215452  0.73780021    -0.82700
O2798       O  0.88777436  0.64552588  0.73087617    -0.85300
C2799       C  0.90801425  0.66515907  0.72512611     1.02400
O2800       O  0.93318984  0.65620470  0.71605378    -0.78100
O2801       O  0.91783257  0.62637747  0.67919649    -0.78200
C2802       C  0.90477119  0.60702713  0.66704387     1.02300
Cr2803     Cr  0.88987506  0.56374404  0.70252301     1.93700
Cr2804     Cr  0.90060847  0.60415671  0.74076568     1.93200
Cr2805     Cr  0.94362370  0.61309076  0.70337755     1.39100
O2806       O  0.91169024  0.59353829  0.71542366    -1.23300
O2807       O  0.57504951  0.94545518  0.69357554    -0.85600
O2808       O  0.60433823  0.96025796  0.72902813    -0.82600
C2809       C  0.61787539  0.95969854  0.74626899     0.97900
O2810       O  0.62339432  0.93332737  0.75494858    -0.82700
O2811       O  0.56691120  0.89658038  0.75792464    -0.85300
C2812       C  0.54492001  0.87783795  0.75277381     1.02400
O2813       O  0.54523236  0.86474839  0.73519744    -0.78100
O2814       O  0.53885071  0.91683635  0.70909320    -0.78300
C2815       C  0.54664262  0.94173289  0.69949790     1.02400
O2816       O  0.62726223  0.90294349  0.68334688    -0.85600
O2817       O  0.65975855  0.92255013  0.71884638    -0.82600
C2818       C  0.67091916  0.89862091  0.72832581     0.97900
O2819       O  0.65279861  0.87896697  0.73663610    -0.82700
O2820       O  0.60162043  0.84266554  0.74161013    -0.85300
C2821       C  0.60281493  0.82740594  0.72469579     1.02400
O2822       O  0.59186173  0.83917951  0.70818772    -0.78100
O2823       O  0.57848340  0.88665320  0.67970209    -0.78200
C2824       C  0.60536050  0.89213937  0.67208356     1.02300
Cr2825     Cr  0.61550936  0.93036939  0.70717759     1.93700
Cr2826     Cr  0.60984090  0.88895993  0.74600882     1.93200
Cr2827     Cr  0.56582505  0.87828812  0.70890038     1.39100
O2828       O  0.59730705  0.89921520  0.72069386    -1.23300
O2829       O  0.67900948  0.71546789  0.79576035    -0.85600
O2830       O  0.63118114  0.71030501  0.76713044    -0.82600
C2831       C  0.64618294  0.70948939  0.75030163     0.97900
O2832       O  0.66283984  0.68576837  0.74552734    -0.82700
O2833       O  0.69409023  0.62764101  0.74983843    -0.85300
C2834       C  0.72107109  0.63448345  0.75691509     1.02400
O2835       O  0.72387561  0.64569566  0.77488116    -0.78100
O2836       O  0.70895870  0.67867329  0.80992130    -0.78300
C2837       C  0.70470622  0.70731826  0.80442488     1.02400
O2838       O  0.64455524  0.67578195  0.82345382    -0.85600
O2839       O  0.59988544  0.66432066  0.79267621    -0.82600
C2840       C  0.58904079  0.65504171  0.77545605     0.97900
O2841       O  0.60605857  0.65632291  0.75956532    -0.82700
O2842       O  0.63860242  0.60298344  0.76830149    -0.85300
C2843       C  0.65756399  0.58400162  0.77674696     1.02400
O2844       O  0.68201468  0.59389774  0.78636011    -0.78100
O2845       O  0.66528122  0.62831135  0.82131089    -0.78200
C2846       C  0.65033318  0.64908358  0.83134533     1.02300
Cr2847     Cr  0.64024226  0.68903925  0.79402077     1.93700
Cr2848     Cr  0.65147767  0.64430798  0.75780906     1.93200
Cr2849     Cr  0.69254407  0.63806657  0.79711306     1.39100
O2850       O  0.66168690  0.65710332  0.78309323    -1.23300
O2851       O  0.83196500  0.79057880  0.79867797    -0.85600
O2852       O  0.88991341  0.79139485  0.77661009    -0.82600
C2853       C  0.87621634  0.78566285  0.75990905     0.97900
O2854       O  0.85680818  0.80540658  0.75306523    -0.82700
O2855       O  0.81804423  0.85621463  0.75043907    -0.85300
C2856       C  0.79472696  0.86879156  0.75938403     1.02400
O2857       O  0.79568766  0.87567426  0.77830411    -0.78100
O2858       O  0.80237136  0.83129398  0.80971974    -0.78300
C2859       C  0.80569489  0.80166297  0.80518701     1.02400
O2860       O  0.86058730  0.82421747  0.82917973    -0.85600
O2861       O  0.91197355  0.83913534  0.80150744    -0.82600
C2862       C  0.92473893  0.84743250  0.78454438     0.97900
O2863       O  0.90932209  0.84730317  0.76739959    -0.82700
O2864       O  0.86864914  0.89631988  0.76272877    -0.85300
C2865       C  0.86445979  0.91698806  0.77641341     1.02400
O2866       O  0.84900046  0.91102809  0.79266215    -0.78100
O2867       O  0.85407980  0.87425664  0.82619060    -0.78200
C2868       C  0.85963688  0.85085781  0.83737411     1.02300
Cr2869     Cr  0.87203045  0.81427586  0.80037375     1.93700
Cr2870     Cr  0.86246562  0.85075189  0.76054410     1.93200
Cr2871     Cr  0.82721693  0.87078108  0.80075322     1.39100
O2872       O  0.85339416  0.84582166  0.78701024    -1.23300
O2873       O  0.82429428  0.54425836  0.06070095    -0.85600
O2874       O  0.85334796  0.53046756  0.02423738    -0.82600
C2875       C  0.86143491  0.53382040  0.00568492     0.97900
O2876       O  0.86626886  0.56115111  0.99844998    -0.82700
O2877       O  0.80970366  0.59603720  0.99849211    -0.85300
C2878       C  0.78844567  0.61472805  0.00467764     1.02400
O2879       O  0.79047920  0.62733297  0.02234627    -0.78100
O2880       O  0.78687177  0.57536271  0.04811926    -0.78300
C2881       C  0.79509981  0.54955519  0.05653795     1.02400
O2882       O  0.87749469  0.58783518  0.07045237    -0.85600
O2883       O  0.90708575  0.57083353  0.03373423    -0.82600
C2884       C  0.91592017  0.59523685  0.02380670     0.97900
O2885       O  0.89615958  0.61488007  0.01714702    -0.82700
O2886       O  0.84435053  0.65012092  0.01373227    -0.85300
C2887       C  0.84792418  0.66514774  0.03050664     1.02400
O2888       O  0.84012194  0.65274073  0.04750328    -0.78100
O2889       O  0.82941332  0.60445008  0.07607598    -0.78200
C2890       C  0.85727580  0.59976318  0.08238454     1.02300
Cr2891     Cr  0.86410070  0.56086121  0.04651061     1.93700
Cr2892     Cr  0.85320965  0.60424735  0.00884496     1.93200
Cr2893     Cr  0.81393058  0.61346162  0.04757188     1.39100
O2894       O  0.84373503  0.59242342  0.03424230    -1.23300
O2895       O  0.67389044  0.96558295  0.04858335    -0.85600
O2896       O  0.62743540  0.96470773  0.01890875    -0.82600
C2897       C  0.64354886  0.96494342  0.00239906     0.97900
O2898       O  0.66059859  0.94138973  0.99758792    -0.82700
O2899       O  0.68922463  0.88054945  0.00043118    -0.85300
C2900       C  0.71531672  0.88239657  0.00987999     1.02400
O2901       O  0.71679765  0.89450096  0.02749808    -0.78100
O2902       O  0.70211535  0.92646871  0.06196486    -0.78300
C2903       C  0.69905170  0.95568298  0.05717524     1.02400
O2904       O  0.63873684  0.92566985  0.07489522    -0.85600
O2905       O  0.59430743  0.91557056  0.04252792    -0.82600
C2906       C  0.58522386  0.90735855  0.02460108     0.97900
O2907       O  0.60258601  0.91370481  0.00947214    -0.82700
O2908       O  0.63159868  0.85713783  0.01588643    -0.85300
C2909       C  0.64717750  0.83623417  0.02538332     1.02400
O2910       O  0.67159508  0.84400374  0.03587929    -0.78100
O2911       O  0.65404456  0.87701419  0.07012696    -0.78200
C2912       C  0.64380266  0.89821198  0.08186683     1.02300
Cr2913     Cr  0.63466377  0.94054517  0.04542227     1.93700
Cr2914     Cr  0.64699855  0.89909416  0.00766933     1.93200
Cr2915     Cr  0.68397567  0.88715181  0.04790922     1.39100
O2916       O  0.65582278  0.90905715  0.03365255    -1.23300
O2917       O  0.92600966  0.79256564  0.94531915    -0.85600
O2918       O  0.90217797  0.77992005  0.98362357    -0.82600
C2919       C  0.89137059  0.78351919  0.00154409     0.97900
O2920       O  0.88366133  0.81077431  0.00781508    -0.82700
O2921       O  0.94010630  0.84517658  0.00758413    -0.85300
C2922       C  0.96281407  0.86054280  0.00002647     1.02400
O2923       O  0.96003885  0.87471004  0.98286538    -0.78100
O2924       O  0.96336187  0.82506121  0.95563332    -0.78300
C2925       C  0.95511089  0.79850276  0.94830544     1.02400
O2926       O  0.87145241  0.83228213  0.93726916    -0.85600
O2927       O  0.84571614  0.81616139  0.97417589    -0.82600
C2928       C  0.83524496  0.84170116  0.98185030     0.97900
O2929       O  0.85355765  0.86301460  0.98827641    -0.82700
O2930       O  0.90603544  0.89924190  0.99291141    -0.85300
C2931       C  0.90208364  0.91476695  0.97646373     1.02400
O2932       O  0.90879351  0.90236443  0.95922616    -0.78100
O2933       O  0.91643425  0.85480385  0.92967558    -0.78200
C2934       C  0.88899915  0.84580828  0.92441776     1.02300
Cr2935     Cr  0.88783414  0.80778188  0.96088905     1.93700
Cr2936     Cr  0.89675879  0.85347795  0.99726574     1.93200
Cr2937     Cr  0.93504809  0.86278638  0.95781234     1.39100
O2938       O  0.90666307  0.84114976  0.97191726    -1.23300
O2939       O  0.57718195  0.70171917  0.93860617    -0.85600
O2940       O  0.60446110  0.71658375  0.97557870    -0.82600
C2941       C  0.61196597  0.71346172  0.99431712     0.97900
O2942       O  0.61643463  0.68623370  0.00189597    -0.82700
O2943       O  0.56026196  0.64862098  0.00004240    -0.85300
C2944       C  0.53957416  0.63038688  0.99220593     1.02400
O2945       O  0.54492297  0.61712767  0.97506847    -0.78100
O2946       O  0.54029611  0.66913953  0.94955970    -0.78300
C2947       C  0.54828294  0.69601491  0.94266085     1.02400
O2948       O  0.63188553  0.66044090  0.92988124    -0.85600
O2949       O  0.65900399  0.67748276  0.96637783    -0.82600
C2950       C  0.66865944  0.65258840  0.97533673     0.97900
O2951       O  0.64972664  0.63410089  0.98410198    -0.82700
O2952       O  0.59878977  0.59678955  0.98589117    -0.85300
C2953       C  0.60416260  0.58168545  0.96939009     1.02400
O2954       O  0.59706307  0.59358420  0.95197842    -0.78100
O2955       O  0.58547379  0.64138162  0.92247607    -0.78200
C2956       C  0.61328124  0.64793509  0.91705069     1.02300
Cr2957     Cr  0.61654989  0.68649574  0.95348234     1.93700
Cr2958     Cr  0.60542025  0.64276714  0.99106646     1.93200
Cr2959     Cr  0.56910121  0.63192160  0.95076302     1.39100
O2960       O  0.59700523  0.65416744  0.96521219    -1.23300
O2961       O  0.92815414  0.71518959  0.55030555    -0.85600
O2962       O  0.88041383  0.71535087  0.52241456    -0.82600
C2963       C  0.89257427  0.71949381  0.50484381     0.97900
O2964       O  0.91179573  0.69926815  0.49773707    -0.82700
O2965       O  0.94519240  0.64113342  0.49500910    -0.85300
C2966       C  0.97212139  0.64525201  0.50283457     1.02400
O2967       O  0.97489881  0.65308719  0.52142149    -0.78100
O2968       O  0.96228783  0.67792883  0.55865712    -0.78300
C2969       C  0.95561364  0.70715460  0.55621247     1.02400
O2970       O  0.89694810  0.66784666  0.57415634    -0.85600
O2971       O  0.85043715  0.66247738  0.54196421    -0.82600
C2972       C  0.83950835  0.66013943  0.52365752     0.97900
O2973       O  0.85761388  0.66422751  0.50857166    -0.82700
O2974       O  0.89164873  0.61058982  0.51069834    -0.85300
C2975       C  0.91035478  0.59002737  0.51773920     1.02400
O2976       O  0.93445626  0.59781516  0.52859325    -0.78100
O2977       O  0.92066019  0.62348773  0.56674655    -0.78200
C2978       C  0.90670416  0.64082419  0.57964073     1.02300
Cr2979     Cr  0.89065566  0.68780191  0.54630165     1.93700
Cr2980     Cr  0.90285886  0.65449285  0.50526506     1.93200
Cr2981     Cr  0.94534473  0.63961910  0.54301470     1.39100
O2982       O  0.91312271  0.66043776  0.53168004    -1.23300
O2983       O  0.83018406  0.95394780  0.43516133    -0.85600
O2984       O  0.85618337  0.96801874  0.47191680    -0.82600
C2985       C  0.86778303  0.96672124  0.48973589     0.97900
O2986       O  0.87039120  0.94015322  0.49857611    -0.82700
O2987       O  0.81157941  0.90436147  0.49717488    -0.85300
C2988       C  0.79105735  0.88499704  0.49026402     1.02400
O2989       O  0.79510662  0.87233207  0.47276852    -0.78100
O2990       O  0.79286804  0.92226657  0.44646602    -0.78300
C2991       C  0.80124636  0.94877453  0.43937306     1.02400
O2992       O  0.88404753  0.91146900  0.42750781    -0.85600
O2993       O  0.91139232  0.92833796  0.46412469    -0.82600
C2994       C  0.92040247  0.90385328  0.47399504     0.97900
O2995       O  0.90059415  0.88570996  0.48220855    -0.82700
O2996       O  0.84802408  0.85101757  0.48408496    -0.85300
C2997       C  0.85202210  0.83443537  0.46798939     1.02400
O2998       O  0.84723416  0.84599200  0.45022398    -0.78100
O2999       O  0.83751161  0.89286769  0.42000626    -0.78200
C3000       C  0.86536156  0.89934197  0.41461467     1.02300
Cr3001     Cr  0.86904153  0.93812591  0.45051027     1.93700
Cr3002     Cr  0.85663271  0.89660927  0.48861380     2.01200
Cr3003     Cr  0.82044885  0.88488670  0.44830305     1.39100
O3004       O  0.84882861  0.90678385  0.46249506    -1.23300
O3005       O  0.67731847  0.53441291  0.45429252    -0.85600
O3006       O  0.62953034  0.53792961  0.48286519    -0.82600
C3007       C  0.64601682  0.53749417  0.49921864     0.97900
O3008       O  0.66236523  0.56110424  0.50442675    -0.82700
O3009       O  0.69328247  0.61874297  0.50136852    -0.85300
C3010       C  0.71974014  0.61497876  0.49283890     1.02400
O3011       O  0.72156621  0.60459656  0.47461188    -0.78100
O3012       O  0.70533237  0.57195903  0.43948702    -0.78300
C3013       C  0.70156578  0.54296589  0.44438499     1.02400
O3014       O  0.64259423  0.57341222  0.42705273    -0.85600
O3015       O  0.59828379  0.58498143  0.45759778    -0.82600
C3016       C  0.58813324  0.59448987  0.47484380     0.97900
O3017       O  0.60492583  0.59135081  0.49091256    -0.82700
O3018       O  0.63715547  0.64528709  0.48440855    -0.85300
C3019       C  0.65499838  0.66464513  0.47558873     1.02400
O3020       O  0.67849031  0.65536911  0.46498564    -0.78100
O3021       O  0.65930368  0.62197492  0.42975344    -0.78200
C3022       C  0.64624123  0.60043000  0.41921491     1.02300
Cr3023     Cr  0.63833401  0.56006419  0.45630282     1.93700
Cr3024     Cr  0.65034843  0.60307012  0.49332324     1.93200
Cr3025     Cr  0.68879115  0.61196748  0.45322298     1.39100
O3026       O  0.65957761  0.59179533  0.46760965    -1.23300
O3027       O  0.58004287  0.80102443  0.56189835    -0.85600
O3028       O  0.62266684  0.78455335  0.53111697    -0.82600
C3029       C  0.62149846  0.78373202  0.51167888     0.97900
O3030       O  0.61382323  0.80765190  0.50123130    -0.82700
O3031       O  0.56193790  0.84716506  0.50071848    -0.85300
C3032       C  0.54278202  0.86884379  0.50535323     1.02400
O3033       O  0.54796175  0.88478922  0.52136839    -0.78100
O3034       O  0.54281716  0.83251535  0.54840987    -0.78300
C3035       C  0.55102356  0.80647330  0.55686132     1.02400
O3036       O  0.62828265  0.84936250  0.57507008    -0.85600
O3037       O  0.66452905  0.83445627  0.54259532    -0.82600
C3038       C  0.67270407  0.85021546  0.52690234     0.97900
O3039       O  0.65316176  0.85853392  0.51318429    -0.82700
O3040       O  0.60427403  0.89959412  0.51194898    -0.85300
C3041       C  0.60899402  0.91661145  0.52788550     1.02400
O3042       O  0.59857886  0.90802381  0.54542407    -0.78100
O3043       O  0.57985987  0.86451802  0.57667099    -0.78200
C3044       C  0.60629978  0.86152748  0.58518288     1.02300
Cr3045     Cr  0.62163674  0.81964146  0.55144523     1.93700
Cr3046     Cr  0.60743482  0.85259345  0.50900093     1.93200
Cr3047     Cr  0.57004383  0.87046325  0.54701238     1.39100
O3048       O  0.60015584  0.84684657  0.53569411    -1.23300
O3049       O  0.93702361  0.95439009  0.30751947    -0.85600
O3050       O  0.91042281  0.96816777  0.27041519    -0.82600
C3051       C  0.90100005  0.96505959  0.25208692     0.97900
O3052       O  0.89412555  0.93800289  0.24511176    -0.82700
O3053       O  0.95064778  0.90236124  0.24565057    -0.85300
C3054       C  0.97208337  0.88391608  0.25223722     1.02400
O3055       O  0.96954126  0.87083979  0.26971085    -0.78100
O3056       O  0.97352546  0.92168919  0.29611933    -0.78300
C3057       C  0.96589568  0.94835100  0.30354343     1.02400
O3058       O  0.88251806  0.91361577  0.31612266    -0.85600
O3059       O  0.85460094  0.93023345  0.27978979    -0.82600
C3060       C  0.84431992  0.90479944  0.27163677     0.97900
O3061       O  0.86313313  0.88536255  0.26349445    -0.82700
O3062       O  0.91538498  0.84940995  0.25973156    -0.85300
C3063       C  0.91323594  0.83304041  0.27594712     1.02400
O3064       O  0.91866656  0.84519435  0.29349133    -0.78100
O3065       O  0.92865513  0.89289078  0.32301508    -0.78200
C3066       C  0.90101491  0.90019409  0.32860195     1.02300
Cr3067     Cr  0.89758325  0.93909677  0.29261385     1.93700
Cr3068     Cr  0.90668602  0.89498492  0.25538051     1.93200
Cr3069     Cr  0.94534099  0.88428819  0.29469343     1.39100
O3070       O  0.91650842  0.90633770  0.28092226    -1.23300
O3071       O  0.68921456  0.80256827  0.18869290    -0.85600
O3072       O  0.65858976  0.78913588  0.22449181    -0.82600
C3073       C  0.64885586  0.79237675  0.24272358     0.97900
O3074       O  0.64169861  0.81951819  0.24955887    -0.82700
O3075       O  0.69771478  0.85536969  0.25167278    -0.85300
C3076       C  0.72015751  0.87291854  0.24586408     1.02400
O3077       O  0.71941950  0.88567360  0.22827548    -0.78100
O3078       O  0.72527281  0.83316504  0.20284530    -0.78300
C3079       C  0.71765290  0.80696583  0.19465588     1.02400
O3080       O  0.63655295  0.84469529  0.17740170    -0.85600
O3081       O  0.60492603  0.82750892  0.21256803    -0.82600
C3082       C  0.59394932  0.85246193  0.22083084     0.97900
O3083       O  0.61196921  0.87228860  0.22933613    -0.82700
O3084       O  0.66344711  0.90861096  0.23502088    -0.85300
C3085       C  0.66315399  0.92411791  0.21833106     1.02400
O3086       O  0.67227143  0.91151572  0.20162443    -0.78100
O3087       O  0.68423802  0.86330216  0.17334020    -0.78200
C3088       C  0.65660787  0.85878916  0.16647116     1.02300
Cr3089     Cr  0.64871506  0.81851015  0.20169649     1.93700
Cr3090     Cr  0.65478434  0.86272688  0.23951077     1.93200
Cr3091     Cr  0.69798724  0.87173001  0.20234596     1.39100
O3092       O  0.66704504  0.85081575  0.21454056    -1.23300
O3093       O  0.58746272  0.54014088  0.29303113    -0.85600
O3094       O  0.64179248  0.54316599  0.26775023    -0.82600
C3095       C  0.62706805  0.54076844  0.25091376     0.97900
O3096       O  0.60732177  0.56175627  0.24612296    -0.82700
O3097       O  0.57089265  0.61540689  0.24647265    -0.85300
C3098       C  0.54594299  0.62050978  0.25655333     1.02400
O3099       O  0.54587323  0.62015166  0.27596696    -0.78100
O3100       O  0.55876934  0.57876680  0.30716625    -0.78300
C3101       C  0.56202430  0.54978164  0.30141329     1.02400
O3102       O  0.61885793  0.57492452  0.32317173    -0.85600
O3103       O  0.66667218  0.58999669  0.29403895    -0.82600
C3104       C  0.67820747  0.59960763  0.27711682     0.97900
O3105       O  0.66195172  0.59979875  0.26044384    -0.82700
O3106       O  0.62393682  0.65066311  0.26091020    -0.85300
C3107       C  0.61413083  0.67060730  0.27385633     1.02400
O3108       O  0.59541531  0.66266977  0.28819027    -0.78100
O3109       O  0.60900620  0.62484966  0.32087977    -0.78200
C3110       C  0.61660627  0.60151344  0.33168013     1.02300
Cr3111     Cr  0.62703134  0.56491991  0.29353418     1.93700
Cr3112     Cr  0.61517341  0.60596038  0.25563241     1.93200
Cr3113     Cr  0.57958355  0.61960371  0.29690757     1.39100
O3114       O  0.60676235  0.59734427  0.28185671    -1.23300
O3115       O  0.83483449  0.70271349  0.18872691    -0.85600
O3116       O  0.87341768  0.71772396  0.22142305    -0.82600
C3117       C  0.87535530  0.71637411  0.24084456     0.97900
O3118       O  0.87115770  0.69107425  0.25061413    -0.82700
O3119       O  0.81734903  0.65552988  0.25068012    -0.85300
C3120       C  0.79666131  0.63570320  0.24561308     1.02400
O3121       O  0.79937600  0.62110753  0.22882398    -0.78100
O3122       O  0.79624188  0.67484462  0.20311275    -0.78300
C3123       C  0.80605461  0.70011995  0.19464625     1.02400
O3124       O  0.88267814  0.65289137  0.17724746    -0.85600
O3125       O  0.91815862  0.67023202  0.21107672    -0.82600
C3126       C  0.92652007  0.65229260  0.22578430     0.97900
O3127       O  0.90672422  0.63880953  0.23722089    -0.82700
O3128       O  0.85540211  0.60097415  0.23749026    -0.85300
C3129       C  0.85731651  0.58492937  0.22092310     1.02400
O3130       O  0.84710881  0.59569982  0.20383482    -0.78100
O3131       O  0.83296552  0.64257071  0.17418375    -0.78200
C3132       C  0.86029546  0.64131316  0.16687265     1.02300
Cr3133     Cr  0.87528404  0.68346388  0.20059438     1.93700
Cr3134     Cr  0.86165089  0.64737214  0.24177914     1.93200
Cr3135     Cr  0.82149436  0.63524640  0.20342297     1.39100
O3136       O  0.85335519  0.65585460  0.21544743    -1.23300
C3137       C  0.51601301  0.62945848  0.24602938    -0.00400
C3138       C  0.99954816  0.65112389  0.25906437    -0.12300
C3139       C  0.96964304  0.65899555  0.25162333     0.01800
C3140       C  0.96009324  0.64903397  0.23173088    -0.00500
C3141       C  0.98181648  0.63293228  0.21910082    -0.12200
C3142       C  0.50491476  0.61556170  0.22747196     0.01700
H3143       H  0.50571136  0.66356700  0.26997282     0.14700
H3144       H  0.97455980  0.62521539  0.20380514     0.14700
C3145       C  0.52265970  0.59097266  0.21719773     0.36400
C3146       C  0.94887358  0.67657117  0.26514464     0.36300
N3147       N  0.53684964  0.57116121  0.20900783    -0.44000
N3148       N  0.93266275  0.69057236  0.27626671    -0.44000
C3149       C  0.71172496  0.60843519  0.27567065    -0.00400
C3150       C  0.71989235  0.64068922  0.27519544    -0.12300
C3151       C  0.74914162  0.65036409  0.26717546     0.01800
C3152       C  0.77006651  0.62744619  0.25917889    -0.00500
C3153       C  0.76302080  0.59516079  0.26153854    -0.12200
C3154       C  0.73419723  0.58553759  0.26985316     0.01700
H3155       H  0.70271330  0.65831445  0.27993878     0.14700
H3156       H  0.77939892  0.57739551  0.25580685     0.14700
C3157       C  0.72724568  0.55209079  0.27090143     0.36400
C3158       C  0.75613060  0.68374859  0.26575992     0.36300
N3159       N  0.72177155  0.52528339  0.27185617    -0.44000
N3160       N  0.76220554  0.71041467  0.26469308    -0.44000
C3161       C  0.74165061  0.78066682  0.19240000    -0.00400
C3162       C  0.73115608  0.75014542  0.18661805    -0.12300
C3163       C  0.75166677  0.72379503  0.18679615     0.01800
C3164       C  0.78392061  0.72755784  0.19214906    -0.00500
C3165       C  0.79490789  0.75815008  0.19682844    -0.12200
C3166       C  0.77428534  0.78438664  0.19729798     0.01700
H3167       H  0.70642031  0.74642991  0.18276423     0.14700
H3168       H  0.81957816  0.76138849  0.20109729     0.14700
C3169       C  0.78747102  0.81452506  0.20344131     0.36400
C3170       C  0.73894711  0.69309261  0.18147032     0.36300
N3171       N  0.79816634  0.83857528  0.20848301    -0.44000
N3172       N  0.72880673  0.66844404  0.17725206    -0.44000
C3173       C  0.64401492  0.76352451  0.25543243    -0.00400
C3174       C  0.61707417  0.76078370  0.26804223    -0.12300
C3175       C  0.60765072  0.73109003  0.27585203     0.01800
C3176       C  0.62558934  0.70372183  0.27110434    -0.00500
C3177       C  0.65442233  0.70755291  0.26063524    -0.12200
C3178       C  0.66370146  0.73684568  0.25290528     0.01700
H3179       H  0.60213651  0.78133897  0.27056316     0.14700
H3180       H  0.66915625  0.68710981  0.25738496     0.14700
C3181       C  0.69326762  0.73858553  0.24191432     0.36400
C3182       C  0.57850571  0.72914872  0.28728508     0.36300
N3183       N  0.71702345  0.73991379  0.23318149    -0.44000
N3184       N  0.55517259  0.72770434  0.29651496    -0.44000
C3185       C  0.65319800  0.95748867  0.21959832    -0.00400
C3186       C  0.62110316  0.96380536  0.22358148    -0.12300
C3187       C  0.61169690  0.99253462  0.23263223     0.01800
C3188       C  0.63401328  0.51368037  0.23712510    -0.00500
C3189       C  0.66560067  0.50780839  0.23154662    -0.12200
C3190       C  0.67578221  0.98138514  0.22319631     0.01700
H3191       H  0.60374911  0.94524129  0.22124320     0.14700
H3192       H  0.68364018  0.52519245  0.23525205     0.14700
C3193       C  0.70902197  0.97595472  0.21939526     0.36400
C3194       C  0.57892907  0.99688515  0.23823695     0.36300
N3195       N  0.73565926  0.97164976  0.21633687    -0.44000
N3196       N  0.55271644  0.00049594  0.24280480    -0.44000
C3197       C  0.99076980  0.97328982  0.30678031    -0.00400
C3198       C  0.97981286  0.50853332  0.30718109    -0.12300
C3199       C  0.50364237  0.53366550  0.30219137     0.01800
C3200       C  0.53612434  0.52620147  0.30475456    -0.00500
C3201       C  0.54825236  0.98930400  0.30128903    -0.12200
C3202       C  0.52584848  0.96486126  0.30080804     0.01700
H3203       H  0.95499759  0.51487365  0.30578351     0.14700
H3204       H  0.57233495  0.98367149  0.29683694     0.14700
C3205       C  0.53683875  0.93401773  0.29422211     0.36400
C3206       C  0.99204031  0.56530292  0.30600282     0.36300
N3207       N  0.54589081  0.90946388  0.28883968    -0.44000
N3208       N  0.98344716  0.59129926  0.30483323    -0.44000
C3209       C  0.55957899  0.85795883  0.22248227    -0.00400
C3210       C  0.54778659  0.88880275  0.21927546    -0.12300
C3211       C  0.01917948  0.89843495  0.23044593     0.01800
C3212       C  0.99988450  0.87544428  0.23969418    -0.00500
C3213       C  0.51011450  0.84394549  0.23874410    -0.12200
C3214       C  0.53969196  0.83492282  0.23119821     0.01700
H3215       H  0.56278720  0.90645625  0.21217819     0.14700
H3216       H  0.49585698  0.82652474  0.24672347     0.14700
C3217       C  0.55013171  0.80269093  0.23445544     0.36400
C3218       C  0.00968750  0.93128795  0.22967159     0.36300
N3219       N  0.55825639  0.77678721  0.23701918    -0.44000
N3220       N  0.00172208  0.95752221  0.22906167    -0.44000
C3221       C  0.80997007  0.89744179  0.27049906    -0.00400
C3222       C  0.80091555  0.86533140  0.26950809    -0.12300
C3223       C  0.77007423  0.85651694  0.26396105     0.01800
C3224       C  0.74775777  0.88007547  0.25904486    -0.00500
C3225       C  0.75580901  0.91211619  0.26188992    -0.12200
C3226       C  0.78654984  0.92100806  0.26774950     0.01700
H3227       H  0.81852349  0.84695924  0.27180671     0.14700
H3228       H  0.73861851  0.93034493  0.25801037     0.14700
C3229       C  0.79394562  0.95436908  0.26877660     0.36400
C3230       C  0.76287282  0.82331631  0.26130679     0.36300
N3231       N  0.79977192  0.98112843  0.26958698    -0.44000
N3232       N  0.75708079  0.79672057  0.25917053    -0.44000
C3233       C  0.89460572  0.99370442  0.23964335    -0.00400
C3234       C  0.86701147  0.99474120  0.22735816    -0.12300
C3235       C  0.85395520  0.52557970  0.21908409     0.01800
C3236       C  0.87155172  0.55333556  0.22261172    -0.00500
C3237       C  0.90144157  0.55132303  0.23213309    -0.12200
C3238       C  0.91265570  0.52257912  0.23991031     0.01700
H3239       H  0.85317069  0.97338812  0.22506232     0.14700
H3240       H  0.91518567  0.57269321  0.23466108     0.14700
C3241       C  0.94309469  0.52205292  0.25023784     0.36400
C3242       C  0.82267683  0.52669695  0.21001896     0.36300
N3243       N  0.96758708  0.52182455  0.25835880    -0.44000
N3244       N  0.79746623  0.52742156  0.20292958    -0.44000
C3245       C  0.90687619  0.79926414  0.27283215    -0.00400
C3246       C  0.92642866  0.78405156  0.25849561    -0.12300
C3247       C  0.91628906  0.75713395  0.24802384     0.01800
C3248       C  0.88624906  0.74435394  0.25227571    -0.00500
C3249       C  0.86784386  0.75755420  0.26813139    -0.12200
C3250       C  0.87782441  0.78529179  0.27829416     0.01700
H3251       H  0.94877708  0.79475603  0.25426321     0.14700
H3252       H  0.84515306  0.74710494  0.27185461     0.14700
C3253       C  0.85716106  0.80001350  0.29317417     0.36400
C3254       C  0.93708628  0.74347918  0.23272470     0.36300
N3255       N  0.84056935  0.81167552  0.30516463    -0.44000
N3256       N  0.95398656  0.73282267  0.22052773    -0.44000
C3257       C  0.63586314  0.60500489  0.39728095    -0.00400
C3258       C  0.61493852  0.58243499  0.38883253    -0.12300
C3259       C  0.60772524  0.58177491  0.36775553     0.01800
C3260       C  0.62119553  0.60427636  0.35436980    -0.00500
C3261       C  0.64023052  0.62839654  0.36282768    -0.12200
C3262       C  0.64781137  0.62885466  0.38408994     0.01700
H3263       H  0.60464360  0.56447181  0.39867429     0.14700
H3264       H  0.65036549  0.64603276  0.35267784     0.14700
C3265       C  0.66909270  0.65300842  0.39162444     0.36400
C3266       C  0.58619023  0.55768221  0.36029585     0.36300
N3267       N  0.68618316  0.67238027  0.39765439    -0.44000
N3268       N  0.56892370  0.53837943  0.35438876    -0.44000
C3269       C  0.64987959  0.69826072  0.48048806    -0.00400
C3270       C  0.66922945  0.71147475  0.49586317    -0.12300
C3271       C  0.66019754  0.73916683  0.50617749     0.01800
C3272       C  0.63146368  0.75450575  0.50085540    -0.00500
C3273       C  0.61313114  0.74242916  0.48448020    -0.12200
C3274       C  0.62183315  0.71412746  0.47456025     0.01700
H3275       H  0.69047944  0.69898647  0.50076199     0.14700
H3276       H  0.59141004  0.75440721  0.48000242     0.14700
C3277       C  0.60129840  0.70125578  0.45874931     0.36400
C3278       C  0.68088083  0.75122455  0.52222308     0.36300
N3279       N  0.58487884  0.69093954  0.44604483    -0.44000
N3280       N  0.69750820  0.76074786  0.53508010    -0.44000
C3281       C  0.64533287  0.50860100  0.51157327    -0.00400
C3282       C  0.65702651  0.98134737  0.50296754    -0.12300
C3283       C  0.64728859  0.95117885  0.50855168     0.01800
C3284       C  0.62534353  0.94724902  0.52489552    -0.00500
C3285       C  0.61663230  0.97390366  0.53666457    -0.12200
C3286       C  0.62471622  0.50518262  0.52844197     0.01700
H3287       H  0.67177499  0.98431275  0.48941668     0.14700
H3288       H  0.60035563  0.97126302  0.54942902     0.14700
C3289       C  0.61065275  0.53252997  0.53820012     0.36400
C3290       C  0.65893030  0.92540176  0.49598157     0.36300
N3291       N  0.59946605  0.55453237  0.54599411    -0.44000
N3292       N  0.66877501  0.90581593  0.48523976    -0.44000
C3293       C  0.87514765  0.89495646  0.39276390    -0.00400
C3294       C  0.85158388  0.89254503  0.37735699    -0.12300
C3295       C  0.85936360  0.89278540  0.35634158     0.01800
C3296       C  0.89139478  0.89533016  0.35036248    -0.00500
C3297       C  0.91501347  0.89544667  0.36573229    -0.12200
C3298       C  0.90727730  0.89540437  0.38670813     0.01700
H3299       H  0.82683098  0.89163962  0.38167212     0.14700
H3300       H  0.93973031  0.89694170  0.36138740     0.14700
C3301       C  0.93294351  0.89632950  0.40155855     0.36400
C3302       C  0.83399936  0.89035209  0.34132185     0.36300
N3303       N  0.95350271  0.89718046  0.41345507    -0.44000
N3304       N  0.81369276  0.88834599  0.32929481    -0.44000
C3305       C  0.77659198  0.97388143  0.43693950    -0.00400
C3306       C  0.74462180  0.96454986  0.43673693    -0.12300
C3307       C  0.72010537  0.98663164  0.43890405     0.01800
C3308       C  0.72616271  0.51884123  0.43886926    -0.00500
C3309       C  0.75765878  0.52849352  0.43568700    -0.12200
C3310       C  0.78240006  0.50626314  0.43368245     0.01700
H3311       H  0.73866018  0.93962044  0.43557790     0.14700
H3312       H  0.76330660  0.55354589  0.43578565     0.14700
C3313       C  0.81423139  0.51815193  0.43155991     0.36400
C3314       C  0.68792299  0.97510522  0.43842911     0.36300
N3315       N  0.83966545  0.52789476  0.42979410    -0.44000
N3316       N  0.66216630  0.96580839  0.43797322    -0.44000
C3317       C  0.76303755  0.87446568  0.50250119    -0.00400
C3318       C  0.74962677  0.89422133  0.51769787    -0.12300
C3319       C  0.72096483  0.88588212  0.52738214     0.01800
C3320       C  0.70625352  0.85672542  0.52260847    -0.00500
C3321       C  0.72066325  0.83623622  0.50864551    -0.12200
C3322       C  0.74812410  0.84484581  0.49828816     0.01700
H3323       H  0.76041445  0.91693983  0.52109836     0.14700
H3324       H  0.70883443  0.81427375  0.50449722     0.14700
C3325       C  0.75859617  0.82320337  0.48238957     0.36400
C3326       C  0.70612232  0.90823055  0.54119013     0.36300
N3327       N  0.76602737  0.80585503  0.46941425    -0.44000
N3328       N  0.69418174  0.92619822  0.55221726    -0.44000
C3329       C  0.95440310  0.89635981  0.47733120    -0.00400
C3330       C  0.96349054  0.86425919  0.47858675    -0.12300
C3331       C  0.49378321  0.85427141  0.48454547     0.01800
C3332       C  0.51483972  0.87721684  0.49241660    -0.00500
C3333       C  0.50682152  0.90950533  0.49045611    -0.12200
C3334       C  0.97678891  0.91987940  0.48245047     0.01700
H3335       H  0.94649272  0.84595365  0.47472006     0.14700
H3336       H  0.52297578  0.92738746  0.49632728     0.14700
C3337       C  0.96896318  0.95318018  0.48166674     0.36400
C3338       C  0.50059210  0.82082465  0.48618338     0.36300
N3339       N  0.96272042  0.97987569  0.48106402    -0.44000
N3340       N  0.50601691  0.79401202  0.48751238    -0.44000
C3341       C  0.98012831  0.73288193  0.55916284    -0.00400
C3342       C  0.97149127  0.76423323  0.55417870    -0.12300
C3343       C  0.99366497  0.78894788  0.55356715     0.01800
C3344       C  0.52628038  0.78152214  0.56042225    -0.00500
C3345       C  0.53553015  0.74976847  0.56357121    -0.12200
C3346       C  0.51316263  0.72500252  0.56407140     0.01700
H3347       H  0.94714004  0.76958705  0.55004005     0.14700
H3348       H  0.56049584  0.74397415  0.56480888     0.14700
C3349       C  0.52480210  0.69306820  0.56667013     0.36400
C3350       C  0.98190561  0.81991285  0.54783555     0.36300
N3351       N  0.53422114  0.66750241  0.56879731    -0.44000
N3352       N  0.97234129  0.84463561  0.54319964    -0.44000
C3353       C  0.00073621  0.63729726  0.49109052    -0.00400
C3354       C  0.50033684  0.60911515  0.47971162    -0.12300
C3355       C  0.52852348  0.59558226  0.47250090     0.01800
C3356       C  0.55747882  0.61049214  0.47705523    -0.00500
C3357       C  0.55753444  0.63983182  0.48730296    -0.12200
C3358       C  0.52961759  0.65317648  0.49464485     0.01700
H3359       H  0.97868029  0.59705523  0.47614225     0.14700
H3360       H  0.57969102  0.65161383  0.49068387     0.14700
C3361       C  0.03090866  0.68258426  0.50632284     0.36400
C3362       C  0.52741695  0.56497056  0.46253602     0.36300
N3363       N  0.03226313  0.70618653  0.51541483    -0.44000
N3364       N  0.52644912  0.54033800  0.45467154    -0.44000
C3365       C  0.80595075  0.65288047  0.51832706    -0.00400
C3366       C  0.78804067  0.63187554  0.53040863    -0.12300
C3367       C  0.75926554  0.61928804  0.52278701     0.01800
C3368       C  0.74857045  0.62751586  0.50278473    -0.00500
C3369       C  0.76532283  0.64977393  0.49143834    -0.12200
C3370       C  0.79337035  0.66262845  0.49887444     0.01700
H3371       H  0.79727996  0.62396749  0.54519063     0.14700
H3372       H  0.75648706  0.65700242  0.47636136     0.14700
C3373       C  0.80901603  0.68471156  0.48530106     0.36400
C3374       C  0.74216455  0.59669522  0.53509880     0.36300
N3375       N  0.82101009  0.70182484  0.47382448    -0.44000
N3376       N  0.72840943  0.57852685  0.54493012    -0.44000
C3377       C  0.88174189  0.99632240  0.49836320    -0.00400
C3378       C  0.88819298  0.52191448  0.48309656    -0.12300
C3379       C  0.90025640  0.55087292  0.48971818     0.01800
C3380       C  0.90429756  0.55705070  0.51099413    -0.00500
C3381       C  0.89695402  0.53311719  0.52525269    -0.12200
C3382       C  0.88465580  0.50369775  0.51849460     0.01700
H3383       H  0.88956857  0.01418579  0.46748768     0.14700
H3384       H  0.89934342  0.53792755  0.54164575     0.14700
C3385       C  0.87813789  0.97992841  0.53522755     0.36400
C3386       C  0.90758719  0.57427618  0.47416675     0.36300
N3387       N  0.87129661  0.96182847  0.54782931    -0.44000
N3388       N  0.91316219  0.59291533  0.46162329    -0.44000
C3389       C  0.88054565  0.74637693  0.49233637    -0.00400
C3390       C  0.89850124  0.75922176  0.47610739    -0.12300
C3391       C  0.88812533  0.78673794  0.46575281     0.01800
C3392       C  0.85921249  0.80092898  0.47143185    -0.00500
C3393       C  0.84022245  0.78633016  0.48610283    -0.12200
C3394       C  0.85046255  0.75985800  0.49674090     0.01700
H3395       H  0.92126557  0.74889890  0.47230912     0.14700
H3396       H  0.81832708  0.79757321  0.49079796     0.14700
C3397       C  0.82935163  0.74815324  0.51251793     0.36400
C3398       C  0.90836320  0.80128452  0.45062482     0.36300
N3399       N  0.81224813  0.73915145  0.52510423    -0.44000
N3400       N  0.92452642  0.81300170  0.43846913    -0.44000
C3401       C  0.97915970  0.77319808  0.94382169    -0.00400
C3402       C  0.96885017  0.74156155  0.94235675    -0.12300
C3403       C  0.49113824  0.71610662  0.93968267     0.01800
C3404       C  0.52414315  0.72188006  0.94028954    -0.00500
C3405       C  0.53443333  0.75358761  0.94053967    -0.12200
C3406       C  0.51291364  0.77896945  0.94172002     0.01700
H3407       H  0.94377248  0.73629249  0.94324409     0.14700
H3408       H  0.55958954  0.75870348  0.94067994     0.14700
C3409       C  0.52563782  0.81068411  0.94186640     0.36400
C3410       C  0.47852576  0.68446501  0.93766250     0.36300
N3411       N  0.53602583  0.83603325  0.94183206    -0.44000
N3412       N  0.96691242  0.65940670  0.93802634    -0.44000
C3413       C  0.64861960  0.87029536  0.14545041    -0.00400
C3414       C  0.66139365  0.89939759  0.13916721    -0.12300
C3415       C  0.65789623  0.91010636  0.11884019     0.01800
C3416       C  0.64154364  0.89134798  0.10419813    -0.00500
C3417       C  0.62767750  0.86280876  0.11062361    -0.12200
C3418       C  0.63074839  0.85234043  0.13112400     0.01700
H3419       H  0.67503292  0.91345893  0.15008156     0.14700
H3420       H  0.61544709  0.84807811  0.09939014     0.14700
C3421       C  0.61739048  0.82207319  0.13658252     0.36400
C3422       C  0.67375726  0.93903901  0.11307215     0.36300
N3423       N  0.60668340  0.79777360  0.14089693    -0.44000
N3424       N  0.68663748  0.96217079  0.10857518    -0.44000
C3425       C  0.55532079  0.89013363  0.02045838    -0.00400
C3426       C  0.52934300  0.89329401  0.03380638    -0.12300
C3427       C  0.99792715  0.87947609  0.02912966     0.01800
C3428       C  0.99350654  0.86278133  0.01046711    -0.00500
C3429       C  0.52268714  0.85846607  0.99725551    -0.12200
C3430       C  0.55187418  0.87137359  0.00229323     0.01700
H3431       H  0.53171566  0.90708812  0.04787723     0.14700
H3432       H  0.51993103  0.84551353  0.98285929     0.14700
C3433       C  0.57709510  0.86579595  0.98769105     0.36400
C3434       C  0.97133654  0.88846803  0.04175317     0.36300
N3435       N  0.59694469  0.86098041  0.97583039    -0.44000
N3436       N  0.94997158  0.89571037  0.05183845    -0.44000
C3437       C  0.74400275  0.86787436  0.00140776    -0.00400
C3438       C  0.75147394  0.87155953  0.98045375    -0.12300
C3439       C  0.78055987  0.86058805  0.97293100     0.01800
C3440       C  0.80184179  0.84539448  0.98650101    -0.00500
C3441       C  0.79320620  0.83940467  0.00687207    -0.12200
C3442       C  0.76454462  0.85037898  0.01444976     0.01700
H3443       H  0.73539014  0.88426178  0.97028856     0.14700
H3444       H  0.80976571  0.82764895  0.01723343     0.14700
C3445       C  0.75723916  0.84376324  0.03580449     0.36400
C3446       C  0.78865336  0.86615100  0.95161980     0.36300
N3447       N  0.75164496  0.83861215  0.05295138    -0.44000
N3448       N  0.79504578  0.87041899  0.93449206    -0.44000
C3449       C  0.61777931  0.74239135  0.00689898    -0.00400
C3450       C  0.64685392  0.74600799  0.01738932    -0.12300
C3451       C  0.65645343  0.77576278  0.02516856     0.01800
C3452       C  0.63657715  0.80254274  0.02256582    -0.00500
C3453       C  0.60588681  0.79750261  0.01449249    -0.12200
C3454       C  0.59663541  0.76816898  0.00639738     0.01700
H3455       H  0.66295194  0.72601236  0.01839306     0.14700
H3456       H  0.58924864  0.81696878  0.01371302     0.14700
C3457       C  0.56531781  0.76521618  0.99751237     0.36400
C3458       C  0.68707440  0.77802447  0.03502147     0.36300
N3459       N  0.54010171  0.76293218  0.99057980    -0.44000
N3460       N  0.71155167  0.77922689  0.04311068    -0.44000
C3461       C  0.63959519  0.99219086  0.98833768    -0.00400
C3462       C  0.61341997  0.99259130  0.97476754    -0.12300
C3463       C  0.60120949  0.52222304  0.96740467     0.01800
C3464       C  0.61843064  0.55001742  0.97167075    -0.00500
C3465       C  0.64659665  0.54796536  0.98328329    -0.12200
C3466       C  0.65671875  0.51920572  0.99170713     0.01700
H3467       H  0.59974886  0.97111864  0.97251341     0.14700
H3468       H  0.65935681  0.56936250  0.98723508     0.14700
C3469       C  0.68485046  0.51864478  0.00448357     0.36400
C3470       C  0.57162470  0.52341279  0.95613553     0.36300
N3471       N  0.70751170  0.51811185  0.01461035    -0.44000
N3472       N  0.54786555  0.52451854  0.94715395    -0.44000
C3473       C  0.86439485  0.60643512  0.10434772    -0.00400
C3474       C  0.84551391  0.59138028  0.11900836    -0.12300
C3475       C  0.84565425  0.60107682  0.13963423     0.01800
C3476       C  0.86475591  0.62685754  0.14607011    -0.00500
C3477       C  0.88555345  0.64048028  0.13168007    -0.12200
C3478       C  0.88539900  0.63050046  0.11084845     0.01700
H3479       H  0.82954279  0.57265384  0.11410909     0.14700
H3480       H  0.90046316  0.66012839  0.13637526     0.14700
C3481       C  0.90508301  0.64677130  0.09615093     0.36400
C3482       C  0.82528131  0.58436772  0.15372845     0.36300
N3483       N  0.92079621  0.65976633  0.08429951    -0.44000
N3484       N  0.80879115  0.57084622  0.16484294    -0.44000
C3485       C  0.72512987  0.97902052  0.06122471    -0.00400
C3486       C  0.71454093  0.50921166  0.06304374    -0.12300
C3487       C  0.73766554  0.53307720  0.06268667     0.01800
C3488       C  0.77019781  0.52511122  0.06103462    -0.00500
C3489       C  0.78077753  0.99520052  0.05940463    -0.12200
C3490       C  0.75763003  0.97118547  0.05930470     0.01700
H3491       H  0.68977224  0.51604225  0.06339708     0.14700
H3492       H  0.80533295  0.98886215  0.05678823     0.14700
C3493       C  0.76794329  0.93912627  0.05548963     0.36400
C3494       C  0.72701617  0.56557547  0.06388071     0.36300
N3495       N  0.77667641  0.91357488  0.05237334    -0.44000
N3496       N  0.71836451  0.59156744  0.06490228    -0.44000
C3497       C  0.70263668  0.64503156  0.97681896    -0.00400
C3498       C  0.71211686  0.61324506  0.97438629    -0.12300
C3499       C  0.74164583  0.60284587  0.98165073     0.01800
C3500       C  0.76196532  0.62466610  0.99137145    -0.00500
C3501       C  0.75409012  0.65704354  0.99136291    -0.12200
C3502       C  0.72468572  0.66742849  0.98408574     0.01700
H3503       H  0.69570609  0.59622649  0.96785110     0.14700
H3504       H  0.77015953  0.67403690  0.99838732     0.14700
C3505       C  0.71679269  0.70059021  0.98609640     0.36400
C3506       C  0.74925794  0.56950559  0.98072080     0.36300
N3507       N  0.71069594  0.72722725  0.98765329    -0.44000
N3508       N  0.75549783  0.54281456  0.97997451    -0.44000
C3509       C  0.50873128  0.62257260  0.00204159    -0.00400
C3510       C  0.98249283  0.61274986  0.98773552    -0.12300
C3511       C  0.95373291  0.60209303  0.99519637     0.01800
C3512       C  0.94865953  0.60000171  0.01666828    -0.00500
C3513       C  0.97312507  0.60902912  0.03030462    -0.12200
C3514       C  0.50315200  0.62108909  0.02356827     0.01700
H3515       H  0.98543840  0.61421085  0.97112163     0.14700
H3516       H  0.96897953  0.60864640  0.04681453     0.14700
C3517       C  0.52704558  0.63077365  0.03826746     0.36400
C3518       C  0.92927901  0.59471148  0.98019119     0.36300
N3519       N  0.54619046  0.63868643  0.05005282    -0.44000
N3520       N  0.90994791  0.58935702  0.96792866    -0.44000
C3521       C  0.86775886  0.50515492  0.99297172    -0.00400
C3522       C  0.89771447  0.00372597  0.98360203    -0.12300
C3523       C  0.90831313  0.97429346  0.97606584     0.01800
C3524       C  0.88920623  0.94721310  0.97837888    -0.00500
C3525       C  0.85892898  0.95055456  0.98698029    -0.12200
C3526       C  0.84841787  0.97981990  0.99457007     0.01700
H3527       H  0.91041530  0.52439368  0.97974331     0.14700
H3528       H  0.84406603  0.92981853  0.98876992     0.14700
C3529       C  0.81890335  0.47834087  0.00530147     0.36400
C3530       C  0.93992036  0.97185660  0.96784342     0.36300
N3531       N  0.79476824  0.47876506  0.01366065    -0.44000
N3532       N  0.96530667  0.96988174  0.96132746    -0.44000
C3533       C  0.88397231  0.75532078  0.01409340    -0.00400
C3534       C  0.85399254  0.75342666  0.02339416    -0.12300
C3535       C  0.84248830  0.72443293  0.03075054     0.01800
C3536       C  0.86150125  0.69711058  0.02927460    -0.00500
C3537       C  0.89252677  0.69969311  0.02181845    -0.12200
C3538       C  0.90387445  0.72847436  0.01422109     0.01700
H3539       H  0.83847050  0.77392988  0.02329551     0.14700
H3540       H  0.90725532  0.67867875  0.02070380     0.14700
C3541       C  0.93555946  0.72960549  0.00597046     0.36400
C3542       C  0.81013224  0.72259079  0.03772183     0.36300
N3543       N  0.96096886  0.73054905  0.99940821    -0.44000
N3544       N  0.78415230  0.72105017  0.04320781    -0.44000
C3545       C  0.86404842  0.85330611  0.85999062    -0.00400
C3546       C  0.85101757  0.82924553  0.87217447    -0.12300
C3547       C  0.85765589  0.82718637  0.89327795     0.01800
C3548       C  0.87816864  0.84948811  0.90269789    -0.00500
C3549       C  0.89024330  0.87437746  0.89065298    -0.12200
C3550       C  0.88310976  0.87661880  0.86947774     0.01700
H3551       H  0.83616723  0.81131771  0.86500064     0.14700
H3552       H  0.90582622  0.89175782  0.89770120     0.14700
C3553       C  0.89712556  0.90186210  0.85767069     0.36400
C3554       C  0.84465151  0.80062238  0.90441149     0.36300
N3555       N  0.90835829  0.92217158  0.84825723    -0.44000
N3556       N  0.83421467  0.77930717  0.91327047    -0.44000
C3557       C  0.63992221  0.64326870  0.85283806    -0.00400
C3558       C  0.66237566  0.63562928  0.86815909    -0.12300
C3559       C  0.65414052  0.63583275  0.88920856     0.01800
C3560       C  0.62282816  0.64343680  0.89513991    -0.00500
C3561       C  0.60001448  0.64872263  0.87964398    -0.12200
C3562       C  0.60830112  0.64901214  0.85874095     0.01700
H3563       H  0.68667793  0.63093186  0.86376197     0.14700
H3564       H  0.57578595  0.65411024  0.88390317     0.14700
C3565       C  0.58382805  0.65563088  0.84366518     0.36400
C3566       C  0.67809835  0.62793518  0.90436999     0.36300
N3567       N  0.56390985  0.66089636  0.83179435    -0.44000
N3568       N  0.69722200  0.62144822  0.91654186    -0.44000
C3569       C  0.73026182  0.73166133  0.80766811    -0.00400
C3570       C  0.72296357  0.76405631  0.80501774    -0.12300
C3571       C  0.74669437  0.78746641  0.80494893     0.01800
C3572       C  0.77882925  0.77885441  0.80768170    -0.00500
C3573       C  0.78594855  0.74675799  0.81138426    -0.12200
C3574       C  0.76232579  0.72338213  0.81150673     0.01700
H3575       H  0.69862321  0.77114792  0.80220191     0.14700
H3576       H  0.81040123  0.73964837  0.81376961     0.14700
C3577       C  0.77229779  0.69099225  0.81467061     0.36400
C3578       C  0.73742618  0.81976059  0.80071324     0.36300
N3579       N  0.78047609  0.66509456  0.81721565    -0.44000
N3580       N  0.72986960  0.84560545  0.79728895    -0.44000
C3581       C  0.61023348  0.87204513  0.60704718    -0.00400
C3582       C  0.58769349  0.89338149  0.61487775    -0.12300
C3583       C  0.58709118  0.90144182  0.63577160     0.01800
C3584       C  0.60935669  0.88807230  0.64956576    -0.00500
C3585       C  0.63338529  0.86850383  0.64172864    -0.12200
C3586       C  0.63403969  0.86039312  0.62060486     0.01700
H3587       H  0.56987163  0.90346392  0.60467600     0.14700
H3588       H  0.65071594  0.85836134  0.65225006     0.14700
C3589       C  0.65840343  0.83897252  0.61360256     0.36400
C3590       C  0.56324565  0.92366575  0.64260979     0.36300
N3591       N  0.67803114  0.82184545  0.60803847    -0.44000
N3592       N  0.54412899  0.94160718  0.64783094    -0.44000
C3593       C  0.95891977  0.85441741  0.78353165    -0.00400
C3594       C  0.97862212  0.83057486  0.77581794    -0.12300
C3595       C  0.50886814  0.83756265  0.76868868     0.01800
C3596       C  0.51881347  0.86943747  0.76694756    -0.00500
C3597       C  0.50031875  0.89332016  0.77601058    -0.12200
C3598       C  0.97081180  0.88553243  0.78537439     0.01700
H3599       H  0.96986128  0.80646622  0.77475966     0.14700
H3600       H  0.50802177  0.91777331  0.77520045     0.14700
C3601       C  0.95221748  0.91018531  0.79490580     0.36400
C3602       C  0.52851036  0.81157530  0.76182531     0.36300
N3603       N  0.93746097  0.92990110  0.80275147    -0.44000
N3604       N  0.54422068  0.79056921  0.75662158    -0.44000
C3605       C  0.76563422  0.87732784  0.74774038    -0.00400
C3606       C  0.75324406  0.90790814  0.75059991    -0.12300
C3607       C  0.72357293  0.91644634  0.74258777     0.01800
C3608       C  0.70537274  0.89398608  0.73159517    -0.00500
C3609       C  0.71851340  0.86385027  0.72776487    -0.12200
C3610       C  0.74854757  0.85548760  0.73554283     0.01700
H3611       H  0.76637915  0.92492444  0.75985492     0.14700
H3612       H  0.70460105  0.84628765  0.71951498     0.14700
C3613       C  0.76014807  0.82372555  0.73216496     0.36400
C3614       C  0.71146812  0.94747859  0.74758477     0.36300
N3615       N  0.76943815  0.79825606  0.72942399    -0.44000
N3616       N  0.70259472  0.97254480  0.75192485    -0.44000
C3617       C  0.61738834  0.79574857  0.72491720    -0.00400
C3618       C  0.64807390  0.79305326  0.73319888    -0.12300
C3619       C  0.66041853  0.76353236  0.73874638     0.01800
C3620       C  0.64166457  0.73630974  0.73630197    -0.00500
C3621       C  0.61237134  0.73857664  0.72600893    -0.12200
C3622       C  0.60016042  0.76812862  0.72012968     0.01700
H3623       H  0.66159387  0.81424734  0.73662103     0.14700
H3624       H  0.59768007  0.71764043  0.72442185     0.14700
C3625       C  0.56856871  0.76968892  0.71153827     0.36400
C3626       C  0.69108042  0.76204677  0.74868190     0.36300
N3627       N  0.54315204  0.77076868  0.70478107    -0.44000
N3628       N  0.71577189  0.76085897  0.75648506    -0.44000
C3629       C  0.63028257  0.99026309  0.75438735    -0.00400
C3630       C  0.63052105  0.99754112  0.77564363    -0.12300
C3631       C  0.63833236  0.52816345  0.78447503     0.01800
C3632       C  0.65311791  0.55038414  0.77146347    -0.00500
C3633       C  0.65792762  0.54279700  0.75071539    -0.12200
C3634       C  0.64716026  0.51437329  0.74241316     0.01700
H3635       H  0.62180795  0.98029767  0.78660090     0.14700
H3636       H  0.66893341  0.56002765  0.74061260     0.14700
C3637       C  0.65291684  0.50879410  0.72070011     0.36400
C3638       C  0.63181446  0.53578352  0.80576518     0.36300
N3639       N  0.65745174  0.50441584  0.70331208    -0.44000
N3640       N  0.62653090  0.54200455  0.82282344    -0.44000
C3641       C  0.90148937  0.61516212  0.64468547    -0.00400
C3642       C  0.90851592  0.59193838  0.62980117    -0.12300
C3643       C  0.90984624  0.59931219  0.60863070     0.01800
C3644       C  0.90318119  0.63054812  0.60173490    -0.00500
C3645       C  0.89482521  0.65339272  0.61668344    -0.12200
C3646       C  0.89425427  0.64612629  0.63786025     0.01700
H3647       H  0.91440888  0.56812251  0.63481368     0.14700
H3648       H  0.88958919  0.67746868  0.61193121     0.14700
C3649       C  0.88591482  0.67093253  0.65224245     0.36400
C3650       C  0.91893127  0.57434499  0.59456454     0.36300
N3651       N  0.87918110  0.69086783  0.66371486    -0.44000
N3652       N  0.92644447  0.55430710  0.58337518    -0.44000
C3653       C  0.97921300  0.51910370  0.69174873    -0.00400
C3654       C  0.96819393  0.98620810  0.69339947    -0.12300
C3655       C  0.48999793  0.96094027  0.69387274     0.01800
C3656       C  0.52280385  0.96711590  0.69524487    -0.00500
C3657       C  0.53384289  0.50096517  0.69105626    -0.12200
C3658       C  0.51165296  0.52576061  0.68946948     0.01700
H3659       H  0.94312089  0.98068668  0.69349544     0.14700
H3660       H  0.55888226  0.50656761  0.69064402     0.14700
C3661       C  0.52355457  0.55761471  0.68733540     0.36400
C3662       C  0.97760462  0.92946279  0.69649620     0.36300
N3663       N  0.53323978  0.58310234  0.68564782    -0.44000
N3664       N  0.96764297  0.90399091  0.69746004    -0.44000
C3665       C  0.89434371  0.50987213  0.75763200    -0.00400
C3666       C  0.90858022  0.98323636  0.74999023    -0.12300
C3667       C  0.90184064  0.95308733  0.75734045     0.01800
C3668       C  0.87758144  0.94887525  0.77224222    -0.00500
C3669       C  0.86374644  0.97581091  0.78128764    -0.12200
C3670       C  0.87221018  0.50592322  0.77360774     0.01700
H3671       H  0.92542756  0.98609756  0.73752564     0.14700
H3672       H  0.84578883  0.97309822  0.79304467     0.14700
C3673       C  0.85497751  0.53259965  0.78188830     0.36400
C3674       C  0.91966559  0.92706822  0.74860678     0.36300
N3675       N  0.84119402  0.55399043  0.78855252    -0.44000
N3676       N  0.93401834  0.90639413  0.74151280    -0.44000
C3677       C  0.88362515  0.75563776  0.74950088    -0.00400
C3678       C  0.89066431  0.73013948  0.76247777    -0.12300
C3679       C  0.90044682  0.70134964  0.75456085     0.01800
C3680       C  0.90361890  0.69736155  0.73301062    -0.00500
C3681       C  0.89673539  0.72277316  0.71974214    -0.12200
C3682       C  0.88660999  0.75203133  0.72789017     0.01700
H3683       H  0.88823736  0.73261819  0.77909803     0.14700
H3684       H  0.89830289  0.71948936  0.70316851     0.14700
C3685       C  0.88000603  0.77790632  0.71397526     0.36400
C3686       C  0.90597525  0.67598547  0.76915122     0.36300
N3687       N  0.87467015  0.79870955  0.70285712    -0.44000
N3688       N  0.90988749  0.65608417  0.78117679    -0.44000
C3689       C  0.55695557  0.64190304  0.77290094    -0.00400
C3690       C  0.55457851  0.61145629  0.76425409    -0.12300
C3691       C  0.02535561  0.60085987  0.75643300     0.01800
C3692       C  0.99866059  0.62094376  0.75623335    -0.00500
C3693       C  0.50065373  0.64953960  0.76658729    -0.12200
C3694       C  0.52949620  0.66063733  0.77475286     0.01700
H3695       H  0.57560761  0.59681319  0.76293644     0.14700
H3696       H  0.48001093  0.66486487  0.76690189     0.14700
C3697       C  0.53097458  0.69228395  0.78318989     0.36400
C3698       C  0.02392951  0.56895871  0.74835560     0.36300
N3699       N  0.53218903  0.71768282  0.78991515    -0.44000
N3700       N  0.02274642  0.54329070  0.74208074    -0.44000
C3701       C  0.80632831  0.60824136  0.72506955    -0.00400
C3702       C  0.80377602  0.63826665  0.73432732    -0.12300
C3703       C  0.77586238  0.64787440  0.74407551     0.01800
C3704       C  0.74958255  0.62733488  0.74448024    -0.00500
C3705       C  0.75135073  0.59820724  0.73387416    -0.12200
C3706       C  0.77963008  0.58834103  0.72448666     0.01700
H3707       H  0.82437604  0.65354154  0.73507453     0.14700
H3708       H  0.73130117  0.58219397  0.73412645     0.14700
C3709       C  0.78165180  0.55665477  0.71615604     0.36400
C3710       C  0.77506052  0.67867832  0.75382553     0.36300
N3711       N  0.78337633  0.53118269  0.70960086    -0.44000
N3712       N  0.77456660  0.70342563  0.76154850    -0.44000
loop_ 
_geom_bond_atom_site_label_1 
_geom_bond_atom_site_label_2 
_geom_bond_distance 
_geom_bond_site_symmetry_2 
_ccdc_geom_bond_type 
O1          Cr19   1.960       .  S
O1            C9   1.261       .  A
O2          Cr19   2.009       .  S
O2            C3   1.271       .  A
C3            O4   1.261       .  A
C3          C881   1.459       .  S
O4          Cr20   1.966       .  S
O5          Cr20   2.014       .  S
O5            C6   1.261       .  A
C6            O7   1.256       .  A
C6          C908   1.478       .  S
O7          Cr21   1.977       .  S
O8          Cr21   2.030       .  S
O8            C9   1.275       .  A
C9          C869   1.496       .  S
O10         Cr19   2.015       .  S
O10          C18   1.265       .  A
O11         Cr19   2.004       .  S
O11          C12   1.264       .  A
C12          O13   1.258       .  A
C12         C917   1.469       .  S
O13         Cr20   1.982       .  S
O14         Cr20   1.933       .  S
O14          C15   1.249       .  A
C15          O16   1.273       .  A
C15         C896   1.465       .  S
O16         Cr21   2.046       .  S
O17         Cr21   1.985       .  S
O17          C18   1.259       .  A
C18         C857   1.489       .  S
Cr19         O22   1.763       .  S
Cr20         O22   1.761       .  S
Cr21         O22   1.768       .  S
O23         Cr41   2.028       .  S
O23          C31   1.275       .  A
O24         Cr41   1.960       .  S
O24          C25   1.254       .  A
C25          O26   1.268       .  A
C25         C845   1.487       .  S
O26         Cr42   2.034       .  S
O27         Cr42   2.004       .  S
O27          C28   1.264       .  A
C28          O29   1.262       .  A
C28         C812   1.486       .  S
O29         Cr43   1.999       .  S
O30         Cr43   1.980       .  S
O30          C31   1.267       .  A
C31         C872   1.498       .  S
O32         Cr41   1.998       .  S
O32          C40   1.259       .  A
O33         Cr41   2.031       .  S
O33          C34   1.270       .  A
C34          O35   1.255       .  A
C34         C824   1.479       .  S
O35         Cr42   1.963       .  S
O36         Cr42   2.007       .  S
O36          C37   1.271       .  A
C37          O38   1.264       .  A
C37         C833   1.472       .  S
O38         Cr43   1.982       .  S
O39         Cr43   1.997       .  S
O39          C40   1.260       .  A
C40         C800   1.482       .  S
Cr41         O44   1.767       .  S
Cr42         O44   1.775       .  S
Cr43         O44   1.769       .  S
O45         Cr63   1.990       .  S
O45          C53   1.267       .  A
O46         Cr63   1.996       .  S
O46          C47   1.264       .  A
C47          O48   1.261       .  A
C47         C836   1.465       .  S
O48         Cr64   1.986       .  S
O49         Cr64   1.999       .  S
O49          C50   1.259       .  A
C50          O51   1.258       .  A
C50         C920   1.478       .  S
O51         Cr65   1.985       .  S
O52         Cr65   2.022       .  S
O52          C53   1.272       .  A
C53         C785   1.506       .  S
O54         Cr63   1.997       .  S
O54          C62   1.261       .  A
O55         Cr63   2.003       .  S
O55          C56   1.265       .  A
C56          O57   1.262       .  A
C56         C905   1.478       .  S
O57         Cr64   1.992       .  S
O58         Cr64   1.953       .  S
O58          C59   1.256       .  A
C59          O60   1.272       .  A
C59         C848   1.470       .  S
O60         Cr65   2.033       .  S
O61         Cr65   1.995       .  S
O61          C62   1.261       .  A
C62         C773   1.482       .  S
Cr63         O66   1.771       .  S
Cr64         O66   1.776       .  S
Cr65         O66   1.776       .  S
O67         Cr85   1.973       .  S
O67          C75   1.276       .  A
O68         Cr85   1.972       .  S
O68          C69   1.247       .  A
C69          O70   1.247       .  A
C69         C893   1.457       .  S
O70         Cr86   1.979       .  S
O71         Cr86   1.995       .  S
O71          C72   1.260       .  A
C72          O73   1.257       .  A
C72         C821   1.477       .  S
O73         Cr87   1.969       .  S
O74         Cr87   2.057       .  S
O74          C75   1.291       .  A
C75         C788   1.502       .  S
O76         Cr85   1.976       .  S
O76          C84   1.244       .  A
O77         Cr85   1.990       .  S
O77          C78   1.275       .  A
C78          O79   1.281       .  A
C78         C809   1.474       .  S
O79         Cr86   2.026       .  S
O80         Cr86   1.937       .  S
O80          C81   1.253       .  A
C81          O82   1.268       .  A
C81         C884   1.481       .  S
O82         Cr87   2.008       .  S
O83         Cr87   1.994       .  S
O83          C84   1.246       .  A
C84         C761   1.479       .  S
Cr85         O88   1.772       .  S
Cr86         O88   1.773       .  S
Cr87         O88   1.770       .  S
O89        Cr107   2.049       .  S
O89          C97   1.281       .  A
O90        Cr107   1.978       .  S
O90          C91   1.258       .  A
C91          O92   1.263   1_554  A
C91         C737   1.483   1_554  S
O92        Cr108   2.013   1_556  S
O93        Cr108   1.982   1_556  S
O93          C94   1.260   1_556  A
C94          O95   1.261       .  A
C94         C716   1.469   1_554  S
O95        Cr109   1.993       .  S
O96        Cr109   1.978       .  S
O96          C97   1.268       .  A
C97         C704   1.509       .  S
O98        Cr107   2.006       .  S
O98         C106   1.259       .  A
O99        Cr107   2.047       .  S
O99         C100   1.274       .  A
C100        O101   1.250       .  A
C100        C728   1.475       .  S
O101       Cr108   1.939       .  S
O102       Cr108   1.996       .  S
O102        C103   1.266       .  A
C103        O104   1.267       .  A
C103        C752   1.471       .  S
O104       Cr109   1.996       .  S
O105       Cr109   1.989       .  S
O105        C106   1.257       .  A
C106        C689   1.482       .  S
Cr107       O110   1.771       .  S
Cr108       O110   1.767       .  S
Cr109       O110   1.768       .  S
O111       Cr129   1.975       .  S
O111        C119   1.268       .  A
O112       Cr129   2.007       .  S
O112        C113   1.267       .  A
C113        O114   1.266   1_554  A
C113        C677   1.485   1_554  S
O114       Cr130   1.996   1_556  S
O115       Cr130   2.001   1_556  S
O115        C116   1.259   1_556  A
C116        O117   1.250       .  A
C116        C653   1.467       .  S
O117       Cr131   1.951       .  S
O118       Cr131   2.042       .  S
O118        C119   1.279       .  A
C119        C701   1.509       .  S
O120       Cr129   2.012       .  S
O120        C128   1.260       .  A
O121       Cr129   2.006       .  S
O121        C122   1.270       .  A
C122        O123   1.260       .  A
C122        C641   1.476       .  S
O123       Cr130   1.979       .  S
O124       Cr130   1.958       .  S
O124        C125   1.258       .  A
C125        O126   1.275       .  A
C125        C668   1.501       .  S
O126       Cr131   2.049       .  S
O127       Cr131   1.976       .  S
O127        C128   1.252       .  A
C128        C632   1.485       .  S
Cr129       O132   1.771       .  S
Cr130       O132   1.771       .  S
Cr131       O132   1.766       .  S
O133       Cr151   2.014       .  S
O133        C141   1.270       .  A
O134       Cr151   1.975       .  S
O134        C135   1.257   1_556  A
C135        O136   1.261       .  A
C135        C749   1.479       .  S
O136       Cr152   2.008   1_554  S
O137       Cr152   1.975   1_554  S
O137        C138   1.261   1_554  A
C138        O139   1.266       .  A
C138        C644   1.460   1_556  S
O139       Cr153   1.989       .  S
O140       Cr153   1.998       .  S
O140        C141   1.267       .  A
C141        C617   1.505       .  S
O142       Cr151   1.975       .  S
O142        C150   1.258       .  A
O143       Cr151   2.017       .  S
O143        C144   1.268       .  A
C144        O145   1.254       .  A
C144        C656   1.455       .  S
O145       Cr152   1.950       .  S
O146       Cr152   1.989       .  S
O146        C147   1.261       .  A
C147        O148   1.266       .  A
C147        C740   1.479       .  S
O148       Cr153   2.011       .  S
O149       Cr153   1.997       .  S
O149        C150   1.262       .  A
C150        C764   1.480       .  S
Cr151       O154   1.768       .  S
Cr152       O154   1.775       .  S
Cr153       O154   1.768       .  S
O155       Cr173   2.025       .  S
O155        C163   1.273       .  A
O156       Cr173   1.978       .  S
O156        C157   1.257       .  A
C157        O158   1.264       .  A
C157        C665   1.486   1_556  S
O158       Cr174   2.020       .  S
O159       Cr174   2.006       .  S
O159        C160   1.268       .  A
C160        O161   1.264       .  A
C160        C725   1.490       .  S
O161       Cr175   1.987       .  S
O162       Cr175   1.990       .  S
O162        C163   1.267       .  A
C163        C620   1.507       .  S
O164       Cr173   1.992       .  S
O164        C172   1.257       .  A
O165       Cr173   2.016       .  S
O165        C166   1.269       .  A
C166        O167   1.258       .  A
C166        C713   1.476       .  S
O167       Cr174   1.959       .  S
O168       Cr174   1.996       .  S
O168        C169   1.264       .  A
C169        O170   1.269       .  A
C169        C680   1.479       .  S
O170       Cr175   2.011       .  S
O171       Cr175   2.005       .  S
O171        C172   1.261       .  A
C172        C776   1.496       .  S
Cr173       O176   1.774       .  S
Cr174       O176   1.778       .  S
Cr175       O176   1.769       .  S
O177       Cr195   1.978       .  S
O177        C185   1.265       .  A
O178       Cr195   1.978       .  S
O178        C179   1.262       .  A
C179        O180   1.264       .  A
C179        C605   1.483       .  S
O180       Cr196   1.991       .  S
O181       Cr196   1.991       .  S
O181        C182   1.255       .  A
C182        O183   1.255       .  A
C182        C569   1.473       .  S
O183       Cr197   1.969       .  S
O184       Cr197   2.032       .  S
O184        C185   1.274       .  A
C185        C557   1.511       .  S
O186       Cr195   2.005       .  S
O186        C194   1.262       .  A
O187       Cr195   2.020       .  S
O187        C188   1.271       .  A
C188        O189   1.258       .  A
C188        C581   1.485       .  S
O189       Cr196   1.968       .  S
O190       Cr196   1.948       .  S
O190        C191   1.257       .  A
C191        O192   1.273       .  A
C191        C596   1.476       .  S
O192       Cr197   2.036       .  S
O193       Cr197   1.986       .  S
O193        C194   1.258       .  A
C194        C860   1.503       .  S
Cr195       O198   1.772       .  S
Cr196       O198   1.780       .  S
Cr197       O198   1.775       .  S
O199       Cr217   2.032       .  S
O199        C207   1.275       .  A
O200       Cr217   1.949       .  S
O200        C201   1.251       .  A
C201        O202   1.266       .  A
C201        C593   1.493       .  S
O202       Cr218   2.034       .  S
O203       Cr218   2.015       .  S
O203        C204   1.272       .  A
C204        O205   1.262       .  A
C204        C533   1.499       .  S
O205       Cr219   1.984       .  S
O206       Cr219   1.961       .  S
O206        C207   1.263       .  A
C207        C521   1.496       .  S
O208       Cr217   1.973       .  S
O208        C216   1.253       .  A
O209       Cr217   2.032       .  S
O209        C210   1.273       .  A
C210        O211   1.256       .  A
C210        C545   1.486       .  S
O211       Cr218   1.957       .  S
O212       Cr218   1.981       .  S
O212        C213   1.267       .  A
C213        O214   1.266       .  A
C213        C608   1.464       .  S
O214       Cr219   1.995       .  S
O215       Cr219   1.998       .  S
O215        C216   1.258       .  A
C216        C509   1.482       .  S
Cr217       O220   1.762       .  S
Cr218       O220   1.775       .  S
Cr219       O220   1.766       .  S
O221       Cr239   1.973       .  S
O221        C229   1.265       .  A
O222       Cr239   1.998       .  S
O222        C223   1.265       .  A
C223        O224   1.258       .  A
C223        C497   1.461       .  S
O224       Cr240   1.976       .  S
O225       Cr240   1.998       .  S
O225        C226   1.259       .  A
C226        O227   1.259       .  A
C226        C584   1.469       .  S
O227       Cr241   1.973       .  S
O228       Cr241   2.032       .  S
O228        C229   1.275       .  A
C229        C524   1.497       .  S
O230       Cr239   1.986       .  S
O230        C238   1.260       .  A
O231       Cr239   1.996       .  S
O231        C232   1.263       .  A
C232        O233   1.261       .  A
C232        C572   1.469       .  S
O233       Cr240   1.985       .  S
O234       Cr240   1.952       .  S
O234        C235   1.253       .  A
C235        O236   1.272       .  A
C235        C485   1.470       .  S
O236       Cr241   2.033       .  S
O237       Cr241   2.001       .  S
O237        C238   1.261       .  A
C238        C473   1.493       .  S
Cr239       O242   1.766       .  S
Cr240       O242   1.774       .  S
Cr241       O242   1.770       .  S
O243       Cr261   2.045       .  S
O243        C251   1.286       .  A
O244       Cr261   1.981       .  S
O244        C245   1.259       .  A
C245        O246   1.256       .  A
C245        C488   1.478       .  S
O246       Cr262   1.979       .  S
O247       Cr262   2.006       .  S
O247        C248   1.257       .  A
C248        O249   1.254       .  A
C248        C548   1.485       .  S
O249       Cr263   1.997       .  S
O250       Cr263   1.979       .  S
O250        C251   1.275       .  A
C251        C560   1.508       .  S
O252       Cr261   1.999       .  S
O252        C260   1.249       .  A
O253       Cr261   2.005       .  S
O253        C254   1.266       .  A
C254        O255   1.259       .  A
C254        C536   1.472       .  S
O255       Cr262   1.966       .  S
O256       Cr262   1.999       .  S
O256        C257   1.271       .  A
C257        O258   1.274       .  A
C257        C500   1.485       .  S
O258       Cr263   2.000       .  S
O259       Cr263   1.979       .  S
O259        C260   1.249       .  A
C260        C797   1.494       .  S
Cr261       O264   1.782       .  S
Cr262       O264   1.775       .  S
Cr263       O264   1.775       .  S
O265       Cr283   2.027       .  S
O265        C273   1.273       .  A
O266       Cr283   1.972       .  S
O266        C267   1.255       .  A
C267        O268   1.260       .  A
C267        C449   1.475       .  S
O268       Cr284   2.005       .  S
O269       Cr284   1.982       .  S
O269        C270   1.264       .  A
C270        O271   1.266       .  A
C270        C428   1.471       .  S
O271       Cr285   2.001       .  S
O272       Cr285   1.981       .  S
O272        C273   1.265       .  A
C273        C413   1.499       .  S
O274       Cr283   1.972       .  S
O274        C282   1.255       .  A
O275       Cr283   2.032       .  S
O275        C276   1.273       .  A
C276        O277   1.257       .  A
C276        C437   1.492       .  S
O277       Cr284   1.954       .  S
O278       Cr284   1.980       .  S
O278        C279   1.261       .  A
C279        O280   1.265       .  A
C279        C461   1.466       .  S
O280       Cr285   2.003       .  S
O281       Cr285   2.001       .  S
O281        C282   1.262       .  A
C282        C512   1.487       .  S
Cr283       O286   1.766       .  S
Cr284       O286   1.769       .  S
Cr285       O286   1.770       .  S
O287       Cr305   2.021       .  S
O287        C295   1.273       .  A
O288       Cr305   1.977       .  S
O288        C289   1.258       .  A
C289        O290   1.261       .  A
C289        C389   1.483       .  S
O290       Cr306   2.011       .  S
O291       Cr306   1.998       .  S
O291        C292   1.265       .  A
C292        O293   1.261       .  A
C292        C440   1.472       .  S
O293       Cr307   1.994       .  S
O294       Cr307   1.995       .  S
O294        C295   1.268       .  A
C295        C377   1.506       .  S
O296       Cr305   1.989       .  S
O296        C304   1.258       .  A
O297       Cr305   2.022       .  S
O297        C298   1.270       .  A
C298        O299   1.257       .  A
C298        C425   1.477       .  S
O299       Cr306   1.959       .  S
O300       Cr306   1.990       .  S
O300        C301   1.264       .  A
C301        O302   1.267       .  A
C301        C401   1.475       .  S
O302       Cr307   2.002       .  S
O303       Cr307   1.994       .  S
O303        C304   1.260       .  A
C304        C629   1.482       .  S
Cr305       O308   1.773       .  S
Cr306       O308   1.773       .  S
Cr307       O308   1.772       .  S
O309       Cr327   1.965       .  S
O309        C317   1.265       .  A
O310       Cr327   2.005       .  S
O310        C311   1.262       .  A
C311        O312   1.259       .  A
C311        C404   1.470       .  S
O312       Cr328   1.985       .  S
O313       Cr328   2.010       .  S
O313        C314   1.262       .  A
C314        O315   1.255       .  A
C314        C353   1.477       .  S
O315       Cr329   1.956       .  S
O316       Cr329   2.048       .  S
O316        C317   1.281       .  A
C317        C416   1.500       .  S
O318       Cr327   1.998       .  S
O318        C326   1.258       .  A
O319       Cr327   1.984       .  S
O319        C320   1.264       .  A
C320        O321   1.268       .  A
C320        C365   1.462       .  S
O321       Cr328   2.002       .  S
O322       Cr328   1.945       .  S
O322        C323   1.256       .  A
C323        O324   1.273       .  A
C323        C392   1.495       .  S
O324       Cr329   2.039       .  S
O325       Cr329   1.993       .  S
O325        C326   1.254       .  A
C326        C476   1.481       .  S
Cr327       O330   1.771       .  S
Cr328       O330   1.773       .  S
Cr329       O330   1.770       .  S
O331       Cr349   2.049       .  S
O331        C339   1.288       .  A
O332       Cr349   1.982       .  S
O332        C333   1.262       .  A
C333        O334   1.255       .  A
C333        C464   1.472       .  S
O334       Cr350   1.970       .  S
O335       Cr350   1.990       .  S
O335        C336   1.249       .  A
C336        O337   1.249       .  A
C336        C368   1.473       .  S
O337       Cr351   1.980       .  S
O338       Cr351   1.979       .  S
O338        C339   1.276       .  A
C339        C380   1.503       .  S
O340       Cr349   2.017       .  S
O340        C348   1.253       .  A
O341       Cr349   2.008       .  S
O341        C342   1.267       .  A
C342        O343   1.259       .  A
C342        C356   1.479       .  S
O343       Cr350   1.957       .  S
O344       Cr350   2.003       .  S
O344        C345   1.275       .  A
C345        O346   1.276       .  A
C345        C452   1.474       .  S
O346       Cr351   1.993       .  S
O347       Cr351   1.976       .  S
O347        C348   1.246       .  A
C348        C692   1.495       .  S
Cr349       O352   1.776       .  S
Cr350       O352   1.771       .  S
Cr351       O352   1.775       .  S
C353        C358   1.412       .  A
C353       C2210   1.401   1_455  A
C354        C355   1.389       .  A
C354       C2209   1.402       .  A
C354       H2215   1.086       .  S
C355        C356   1.413       .  A
C355        C362   1.448       .  S
C356        C357   1.407       .  A
C357       C2214   1.412       .  A
C357        H360   1.084       .  S
C358       C2213   1.410   1_455  A
C358        C361   1.442       .  S
H359       C2210   1.086   1_455  S
C361        N363   1.157       .  T
C362        N364   1.157       .  T
C365        C366   1.405       .  A
C365        C370   1.404       .  A
C366        C367   1.404       .  A
C366        H371   1.084       .  S
C367        C368   1.411       .  A
C367        C374   1.444       .  S
C368        C369   1.405       .  A
C369        C370   1.393       .  A
C369        H372   1.085       .  S
C370        C373   1.445       .  S
C373        N375   1.157       .  T
C374        N376   1.157       .  T
C377        C378   1.409       .  A
C377        C382   1.419       .  A
C378        C379   1.406       .  A
C378        H383   1.084       .  S
C379        C380   1.417       .  A
C379        C386   1.444       .  S
C380        C381   1.408       .  A
C381        C382   1.410       .  A
C381        H384   1.085       .  S
C382        C385   1.443       .  S
C385        N387   1.157       .  T
C386        N388   1.157       .  T
C389        C390   1.408       .  A
C389        C394   1.407       .  A
C390        C391   1.410       .  A
C390        H395   1.084       .  S
C391        C392   1.414       .  A
C391        C398   1.442       .  S
C392        C393   1.410       .  A
C393        C394   1.394       .  A
C393        H396   1.084       .  S
C394        C397   1.443       .  S
C397        N399   1.156       .  T
C398        N400   1.157       .  T
C401        C402   1.406       .  A
C401        C406   1.408       .  A
C402        C403   1.398       .  A
C402        H407   1.083       .  S
C403       C1332   1.405       .  A
C403        C410   1.444       .  S
C404        C405   1.406       .  A
C404       C1331   1.405   1_545  A
C405       C1334   1.404   1_545  A
C405        H408   1.085       .  S
C406       C1333   1.405       .  A
C406        C409   1.443       .  S
C409        N411   1.157       .  T
C410        N412   1.157       .  T
C413       C1342   1.408       .  A
C413       C2274   1.415       .  A
C414       C1341   1.413   1_545  A
C414       C2271   1.414       .  A
C414        H419   1.084       .  S
C415        C416   1.415       .  A
C415       C2270   1.410   1_455  A
C415       C2278   1.443   1_455  S
C416       C1345   1.408   1_545  A
C417        C418   1.403       .  A
C417       C1344   1.408       .  A
C417        H420   1.085       .  S
C418       C2269   1.415   1_455  A
C418        C421   1.444       .  S
C421        N423   1.157       .  T
C422       C2271   1.443       .  S
C422        N424   1.157       .  T
C425        C426   1.410       .  A
C425        C430   1.407       .  A
C426       C2283   1.403       .  A
C426        H431   1.084       .  S
C427        C428   1.405       .  A
C427       C2282   1.400       .  A
C427        C434   1.443       .  S
C428       C2285   1.406       .  A
C429        C430   1.397       .  A
C429       C2284   1.407   1_455  A
C429        H432   1.083   1_455  S
C430        C433   1.445       .  S
C433        N435   1.157       .  T
C434        N436   1.157       .  T
C437        C438   1.412       .  A
C437        C442   1.414       .  A
C438        C439   1.398       .  A
C438        H443   1.084       .  S
C439        C440   1.404       .  A
C439        C446   1.443       .  S
C440        C441   1.406       .  A
C441        C442   1.404       .  A
C441        H444   1.085       .  S
C442        C445   1.443       .  S
C445        N447   1.157       .  T
C446        N448   1.157       .  T
C449        C450   1.407       .  A
C449       C1382   1.410       .  A
C450       C1379   1.403       .  A
C450        H455   1.085       .  S
C451        C452   1.408       .  A
C451       C1378   1.404   1_545  A
C451        C458   1.442       .  S
C452        C453   1.405       .  A
C453        C454   1.397       .  A
C453        H456   1.086       .  S
C454       C1377   1.412   1_545  A
C454        C457   1.445       .  S
C457        N459   1.157       .  T
C458        N460   1.157       .  T
C461        C462   1.399       .  A
C461        C466   1.410       .  A
C462        C463   1.390       .  A
C462        H467   1.084       .  S
C463        C464   1.411       .  A
C463        C470   1.446       .  S
C464        C465   1.406       .  A
C465        C466   1.407       .  A
C465        H468   1.084       .  S
C466        C469   1.443       .  S
C469        N471   1.157       .  T
C470        N472   1.157       .  T
C473        C474   1.407       .  A
C473        C478   1.417       .  A
C474        C475   1.395       .  A
C474        H479   1.085       .  S
C475        C476   1.409       .  A
C475        C482   1.446       .  S
C476        C477   1.406       .  A
C477        C478   1.411       .  A
C477        H480   1.084       .  S
C478        C481   1.443       .  S
C481        N483   1.157       .  T
C482        N484   1.157       .  T
C485        C486   1.399       .  A
C485        C490   1.413       .  A
C486        C487   1.398       .  A
C486        H491   1.086       .  S
C487        C488   1.414       .  A
C487        C494   1.445       .  S
C488        C489   1.404       .  A
C489        C490   1.405       .  A
C489        H492   1.085       .  S
C490        C493   1.444       .  S
C493        N495   1.157       .  T
C494        N496   1.157       .  T
C497        C502   1.409       .  A
C497       C1426   1.392   1_545  A
C498        C499   1.390       .  A
C498       C1425   1.393       .  A
C498        H503   1.086       .  S
C499        C500   1.421       .  A
C499        C506   1.444       .  S
C500        C501   1.407       .  A
C501       C1430   1.408       .  A
C501        H504   1.084       .  S
C502       C1429   1.406   1_545  A
C502        C505   1.443       .  S
C505        N507   1.157       .  T
C506        N508   1.157       .  T
C509        C510   1.405       .  A
C509        C514   1.412       .  A
C510        C511   1.399       .  A
C510        H515   1.085       .  S
C511        C512   1.417       .  A
C511        C518   1.446       .  S
C512        C513   1.407       .  A
C513        C514   1.400       .  A
C513        H516   1.084       .  S
C514        C517   1.445       .  S
C517        N519   1.157       .  T
C518        N520   1.158       .  T
C521        C522   1.408       .  A
C521       C1454   1.417       .  A
C522        C523   1.399       .  A
C522        H527   1.085       .  S
C523       C1452   1.415       .  A
C523        C530   1.445       .  S
C524        C525   1.408       .  A
C524       C1451   1.416   1_545  A
C525        C526   1.409       .  A
C525        H528   1.084       .  S
C526       C1449   1.417   1_545  A
C526        C529   1.444       .  S
C529        N531   1.157       .  T
C530        N532   1.157       .  T
C533        C534   1.409       .  A
C533        C538   1.428       .  A
C534        C535   1.413       .  A
C534        H539   1.084       .  S
C535        C536   1.412       .  A
C535        C542   1.443       .  S
C536        C537   1.391       .  A
C537        C538   1.392       .  A
C537        H540   1.086       .  S
C538        C541   1.446       .  S
C541        N543   1.158       .  T
C542        N544   1.157       .  T
C545        C546   1.411       .  A
C545        C550   1.410       .  A
C546       C2403   1.403       .  A
C546        H551   1.085       .  S
C547        C548   1.409   1_655  A
C547       C2402   1.404       .  A
C547        C554   1.444       .  S
C548        C549   1.409       .  A
C549       C2406   1.405   1_455  A
C549        H552   1.085       .  S
C550       C2405   1.403       .  A
C550        C553   1.444       .  S
C553        N555   1.157       .  T
C554        N556   1.157   1_655  T
C557        C558   1.409       .  A
C557       C2418   1.419       .  A
C558        C559   1.404       .  A
C558        H563   1.084       .  S
C559       C2416   1.419       .  A
C559        C566   1.445       .  S
C560        C561   1.411       .  A
C560       C2415   1.419   1_455  A
C561        C562   1.412       .  A
C561        H564   1.084       .  S
C562       C2413   1.419   1_455  A
C562        C565   1.443       .  S
C565        N567   1.157       .  T
C566        N568   1.157       .  T
C569       C2426   1.409       .  A
C569       C2430   1.406       .  A
C570        C571   1.403       .  A
C570       C2425   1.410       .  A
C570       H2431   1.082   1_455  S
C571        C572   1.406       .  A
C571        C578   1.444       .  S
C572        C573   1.404       .  A
C573        C574   1.390       .  A
C573        H576   1.081       .  S
C574       C2425   1.406       .  A
C574       C2433   1.445       .  S
H575       C2426   1.083       .  S
C577       C2430   1.445       .  S
C577        N579   1.157       .  T
C578        N580   1.157       .  T
C581        C582   1.408       .  A
C581        C586   1.423       .  A
C582        C583   1.412       .  A
C582        H587   1.084       .  S
C583        C584   1.411       .  A
C583        C590   1.442       .  S
C584        C585   1.391       .  A
C585        C586   1.386       .  A
C585        H588   1.087       .  S
C586        C589   1.446       .  S
C589        N591   1.157       .  T
C590        N592   1.157       .  T
C593       C1522   1.408       .  A
C593       C1526   1.416       .  A
C594        C595   1.390       .  A
C594       C1521   1.406   1_545  A
C594       H1527   1.085       .  S
C595        C596   1.409       .  A
C595        C602   1.447       .  S
C596        C597   1.406       .  A
C597        C598   1.412       .  A
C597        H600   1.084       .  S
C598       C1521   1.416   1_545  A
C598       C1529   1.442   1_545  S
H599       C1522   1.085       .  S
C601       C1526   1.441       .  S
C601        N603   1.157       .  T
C602        N604   1.157       .  T
C605        C606   1.410       .  A
C605        C610   1.422       .  A
C606        C607   1.410       .  A
C606        H611   1.084       .  S
C607        C608   1.409       .  A
C607        C614   1.443       .  S
C608        C609   1.393       .  A
C609        C610   1.381       .  A
C609        H612   1.084       .  S
C610        C613   1.448       .  S
C613        N615   1.158       .  T
C614        N616   1.157       .  T
C617        C618   1.410       .  A
C617       C2478   1.416       .  A
C618       C2475   1.408       .  A
C618        H623   1.084       .  S
C619        C620   1.418   1_655  A
C619       C2474   1.408       .  A
C619        C626   1.444       .  S
C620        C621   1.410       .  A
C621        C622   1.410       .  A
C621        H624   1.084       .  S
C622       C2473   1.418   1_455  A
C622        C625   1.444       .  S
C625        N627   1.157       .  T
C626       N2484   1.157       .  T
N628       C2482   1.157       .  T
C629        C630   1.403       .  A
C629        C634   1.411       .  A
C630        C631   1.400       .  A
C630        H635   1.085       .  S
C631        C632   1.414       .  A
C631        C638   1.445       .  S
C632        C633   1.407       .  A
C633        C634   1.406       .  A
C633        H636   1.085       .  S
C634        C637   1.444       .  S
C637        N639   1.157       .  T
C638        N640   1.157       .  T
C641        C642   1.405       .  A
C641        C646   1.423       .  A
C642       C2499   1.404   1_455  A
C642        H647   1.084       .  S
C643        C644   1.409       .  A
C643       C2498   1.405       .  A
C643        C650   1.443       .  S
C644       C2501   1.393   1_554  A
C645        C646   1.385   1_556  A
C645       C2500   1.391   1_456  A
C645        H648   1.086       .  S
C646        C649   1.447   1_554  S
C649        N651   1.158       .  T
C650        N652   1.157       .  T
C653        C654   1.403   1_554  A
C653        C658   1.415       .  A
C654        C655   1.403       .  A
C654        H659   1.084       .  S
C655        C656   1.410       .  A
C655        C662   1.444       .  S
C656        C657   1.394   1_556  A
C657        C658   1.389       .  A
C657        H660   1.086       .  S
C658        C661   1.446       .  S
C661        N663   1.157       .  T
C662        N664   1.157       .  T
C665        C666   1.408       .  A
C665        C670   1.406       .  A
C666        C667   1.412       .  A
C666        H671   1.084       .  S
C667        C668   1.415       .  A
C667        C674   1.440       .  S
C668        C669   1.411       .  A
C669        C670   1.399       .  A
C669        H672   1.081       .  S
C670        C673   1.445   1_554  S
C673        N675   1.157       .  T
C674        N676   1.157       .  T
C677        C678   1.406       .  A
C677       C1610   1.411       .  A
C678       C1607   1.396       .  A
C678        H683   1.085       .  S
C679        C680   1.409       .  A
C679       C1606   1.401   1_545  A
C679        C686   1.445       .  S
C680        C681   1.408       .  A
C681        C682   1.410       .  A
C681        H684   1.082       .  S
C682       C1605   1.408   1_545  A
C682        C685   1.441       .  S
C685        N687   1.156   1_545  T
C686        N688   1.157       .  T
C689        C690   1.399       .  A
C689        C694   1.412       .  A
C690        C691   1.396       .  A
C690        H695   1.086       .  S
C691        C692   1.418       .  A
C691        C698   1.445       .  S
C692        C693   1.410       .  A
C693        C694   1.414       .  A
C693        H696   1.084       .  S
C694        C697   1.443       .  S
C697        N699   1.157       .  T
C698        N700   1.157       .  T
C701        C706   1.419       .  A
C701       C1630   1.408       .  A
C702        C703   1.405       .  A
C702       C1629   1.407   1_545  A
C702        H707   1.085       .  S
C703        C704   1.419       .  A
C703        C710   1.444       .  S
C704       C1633   1.410   1_545  A
C705        C706   1.413       .  A
C705       C1632   1.410       .  A
C705        H708   1.084       .  S
C706        C709   1.443       .  S
C709        N711   1.157       .  T
C710        N712   1.157       .  T
C713        C714   1.409       .  A
C713        C718   1.410       .  A
C714        C715   1.399       .  A
C714        H719   1.082       .  S
C715        C716   1.403       .  A
C715        C722   1.442       .  S
C716        C717   1.405       .  A
C717        C718   1.397       .  A
C717        H720   1.085       .  S
C718        C721   1.444       .  S
C721        N723   1.157       .  T
C722        N724   1.157       .  T
C725        C730   1.416   1_556  A
C725       C2582   1.404   1_455  A
C726        C727   1.387       .  A
C726       C2581   1.403       .  A
C726        H731   1.085       .  S
C727        C728   1.412   1_556  A
C727        C734   1.447       .  S
C728        C729   1.407       .  A
C729       C2586   1.415       .  A
C729        H732   1.084       .  S
C730       C2585   1.415   1_455  A
C730        C733   1.442       .  S
C733        N735   1.157       .  T
C734        N736   1.157       .  T
C737       C1666   1.407       .  A
C737       C1670   1.410   1_545  A
C738        C739   1.409       .  A
C738       C1665   1.410       .  A
C738       H1671   1.083       .  S
C739        C740   1.409       .  A
C739        C746   1.443       .  S
C740        C741   1.404       .  A
C741        C742   1.399       .  A
C741        H744   1.085       .  S
C742       C1665   1.412       .  A
C742       C1673   1.444   1_556  S
H743       C1666   1.083       .  S
C745       C1670   1.444   1_554  S
C745        N747   1.157       .  T
C746        N748   1.157       .  T
C749        C750   1.408       .  A
C749        C754   1.410       .  A
C750        C751   1.404       .  A
C750        H755   1.085       .  S
C751        C752   1.407       .  A
C751        C758   1.443       .  S
C752        C753   1.404       .  A
C753        C754   1.397       .  A
C753        H756   1.085       .  S
C754        C757   1.446       .  S
C757        N759   1.157   1_554  T
C758        N760   1.157       .  T
C761        C762   1.404       .  A
C761        C766   1.411       .  A
C762        C763   1.396       .  A
C762        H767   1.085       .  S
C763        C764   1.412       .  A
C763        C770   1.445       .  S
C764        C765   1.407       .  A
C765        C766   1.404       .  A
C765        H768   1.085       .  S
C766        C769   1.443       .  S
C769        N771   1.157       .  T
C770        N772   1.157       .  T
C773        C774   1.404       .  A
C773        C778   1.410       .  A
C774        C775   1.408       .  A
C774        H779   1.085       .  S
C775        C776   1.418       .  A
C775        C782   1.444       .  S
C776        C777   1.408       .  A
C777        C778   1.402       .  A
C777        H780   1.085       .  S
C778        C781   1.444       .  S
C781        N783   1.157       .  T
C782        N784   1.157       .  T
C785        C786   1.410       .  A
C785        C790   1.419       .  A
C786        C787   1.409       .  A
C786        H791   1.084       .  S
C787        C788   1.415       .  A
C787        C794   1.443       .  S
C788        C789   1.409       .  A
C789        C790   1.406       .  A
C789        H792   1.085       .  S
C790        C793   1.445       .  S
C793        N795   1.158       .  T
C794        N796   1.157       .  T
C797        C798   1.405       .  A
C797        C802   1.419       .  A
C798        C799   1.395       .  A
C798        H803   1.085       .  S
C799        C800   1.410       .  A
C799        C806   1.445       .  S
C800        C801   1.406       .  A
C801        C802   1.412       .  A
C801        H804   1.084       .  S
C802        C805   1.443       .  S
C805        N807   1.157       .  T
C806        N808   1.157       .  T
C809        C810   1.397       .  A
C809        C814   1.412       .  A
C810       C2667   1.396       .  A
C810        H815   1.086       .  S
C811        C812   1.416       .  A
C811       C2666   1.398   1_455  A
C811        C818   1.444       .  S
C812        C813   1.404       .  A
C813       C2670   1.409   1_455  A
C813        H816   1.084       .  S
C814       C2669   1.410       .  A
C814        C817   1.442       .  S
C817        N819   1.157       .  T
C818        N820   1.157       .  T
C821        C822   1.402       .  A
C821        C826   1.409       .  A
C822        C823   1.397       .  A
C822        H827   1.086       .  S
C823        C824   1.410       .  A
C823        C830   1.440       .  S
C824        C825   1.409       .  A
C825        C826   1.407       .  A
C825        H828   1.085       .  S
C826        C829   1.443       .  S
C829        N831   1.157       .  T
C830        N832   1.156       .  T
C833        C834   1.403       .  A
C833        C838   1.409       .  A
C834        C835   1.397       .  A
C834        H839   1.085       .  S
C835        C836   1.406       .  A
C835        C842   1.443       .  S
C836        C837   1.404       .  A
C837        C838   1.402       .  A
C837        H840   1.085       .  S
C838        C841   1.443       .  S
C841        N843   1.157       .  T
C842        N844   1.157       .  T
C845        C846   1.409       .  A
C845       C1778   1.417       .  A
C846       C1775   1.414       .  A
C846        H851   1.084       .  S
C847        C848   1.411       .  A
C847       C1774   1.412   1_545  A
C847        C854   1.442       .  S
C848        C849   1.395       .  A
C849        C850   1.389       .  A
C849        H852   1.086       .  S
C850       C1773   1.418   1_545  A
C850        C853   1.447       .  S
C853        N855   1.157   1_545  T
C854        N856   1.157       .  T
C857        C858   1.404       .  A
C857        C862   1.411       .  A
C858        C859   1.405       .  A
C858        H863   1.085       .  S
C859        C860   1.420       .  A
C859        C866   1.444       .  S
C860        C861   1.412       .  A
C861        C862   1.406       .  A
C861        H864   1.084       .  S
C862        C865   1.445       .  S
C865        N867   1.157       .  T
C866        N868   1.157       .  T
C869       C1798   1.410   1_545  A
C869       C2730   1.416       .  A
C870       C1797   1.409       .  A
C870       C2727   1.401       .  A
C870        H875   1.085       .  S
C871        C872   1.414   1_655  A
C871       C2726   1.402       .  A
C871       C2734   1.444       .  S
C872       C1801   1.409       .  A
C873        C874   1.405   1_565  A
C873       C1800   1.408       .  A
C873        H876   1.085   1_565  S
C874       C2725   1.416   1_455  A
C874        C877   1.444       .  S
C877        N879   1.157       .  T
C878       C2727   1.444       .  S
C878        N880   1.157       .  T
C881        C886   1.408       .  A
C881       C1810   1.392   1_545  A
C882        C883   1.388       .  A
C882       C1809   1.390       .  A
C882        H887   1.086       .  S
C883        C884   1.425       .  A
C883        C890   1.446       .  S
C884        C885   1.405       .  A
C885       C1814   1.402       .  A
C885        H888   1.084       .  S
C886       C1813   1.404   1_545  A
C886        C889   1.443       .  S
C889        N891   1.157       .  T
C890        N892   1.157       .  T
C893        C894   1.392       .  A
C893        C898   1.412       .  A
C894        C895   1.380       .  A
C894        H899   1.087       .  S
C895        C896   1.416       .  A
C895        C902   1.448       .  S
C896        C897   1.404       .  A
C897        C898   1.408       .  A
C897        H900   1.084       .  S
C898        C901   1.443       .  S
C901        N903   1.157       .  T
C902        N904   1.157       .  T
C905        C906   1.404       .  A
C905        C910   1.409       .  A
C906       C2763   1.400       .  A
C906        H911   1.085       .  S
C907        C908   1.410       .  A
C907       C2762   1.397       .  A
C907        C914   1.445       .  S
C908       C2765   1.408       .  A
C909        C910   1.408       .  A
C909       C2764   1.409   1_455  A
C909        H912   1.085   1_455  S
C910        C913   1.443       .  S
C913        N915   1.157       .  T
C914        N916   1.157       .  T
C917        C918   1.404       .  A
C917        C922   1.407       .  A
C918        C919   1.399       .  A
C918        H923   1.085       .  S
C919        C920   1.410       .  A
C919        C926   1.444       .  S
C920        C921   1.407       .  A
C921        C922   1.403       .  A
C921        H924   1.085       .  S
C922        C925   1.444       .  S
C925        N927   1.157       .  T
C926        N928   1.157       .  T
O929       Cr947   1.965       .  S
O929        C937   1.262       .  A
O930       Cr947   2.011       .  S
O930        C931   1.271       .  A
C931        O932   1.259       .  A
C931       C1809   1.455       .  S
O932       Cr948   1.961       .  S
O933       Cr948   2.011       .  S
O933        C934   1.259       .  A
C934        O935   1.256       .  A
C934       C1836   1.480       .  S
O935       Cr949   1.978       .  S
O936       Cr949   2.026       .  S
O936        C937   1.273       .  A
C937       C1797   1.498       .  S
O938       Cr947   2.019       .  S
O938        C946   1.266       .  A
O939       Cr947   2.008       .  S
O939        C940   1.266       .  A
C940        O941   1.259       .  A
C940       C1845   1.473       .  S
O941       Cr948   1.986       .  S
O942       Cr948   1.935       .  S
O942        C943   1.250       .  A
C943        O944   1.274       .  A
C943       C1824   1.462       .  S
O944       Cr949   2.042       .  S
O945       Cr949   1.979       .  S
O945        C946   1.258       .  A
C946       C1785   1.493       .  S
Cr947       O950   1.766       .  S
Cr948       O950   1.764       .  S
Cr949       O950   1.768       .  S
O951       Cr969   2.022       .  S
O951        C959   1.273       .  A
O952       Cr969   1.953       .  S
O952        C953   1.251       .  A
C953        O954   1.268       .  A
C953       C1773   1.483       .  S
O954       Cr970   2.035       .  S
O955       Cr970   2.004       .  S
O955        C956   1.264       .  A
C956        O957   1.264       .  A
C956       C1740   1.486       .  S
O957       Cr971   1.999       .  S
O958       Cr971   1.976       .  S
O958        C959   1.265       .  A
C959       C1800   1.491       .  S
O960       Cr969   1.993       .  S
O960        C968   1.259       .  A
O961       Cr969   2.036       .  S
O961        C962   1.271       .  A
C962        O963   1.255       .  A
C962       C1752   1.484       .  S
O963       Cr970   1.965       .  S
O964       Cr970   2.004       .  S
O964        C965   1.271       .  A
C965        O966   1.263       .  A
C965       C1761   1.469       .  S
O966       Cr971   1.979       .  S
O967       Cr971   2.001       .  S
O967        C968   1.262       .  A
C968       C1728   1.480       .  S
Cr969       O972   1.762       .  S
Cr970       O972   1.773       .  S
Cr971       O972   1.766       .  S
O973       Cr991   1.984       .  S
O973        C981   1.265       .  A
O974       Cr991   1.994       .  S
O974        C975   1.264       .  A
C975        O976   1.261       .  A
C975       C1764   1.462       .  S
O976       Cr992   1.984       .  S
O977       Cr992   2.000       .  S
O977        C978   1.259       .  A
C978        O979   1.259       .  A
C978       C1848   1.482       .  S
O979       Cr993   1.987       .  S
O980       Cr993   2.027       .  S
O980        C981   1.274       .  A
C981       C1713   1.506       .  S
O982       Cr991   1.994       .  S
O982        C990   1.261       .  A
O983       Cr991   1.997       .  S
O983        C984   1.263       .  A
C984        O985   1.261       .  A
C984       C1833   1.471       .  S
O985       Cr992   1.988       .  S
O986       Cr992   1.955       .  S
O986        C987   1.256       .  A
C987        O988   1.273       .  A
C987       C1776   1.473       .  S
O988       Cr993   2.039       .  S
O989       Cr993   1.993       .  S
O989        C990   1.260       .  A
C990       C1701   1.482       .  S
Cr991       O994   1.771       .  S
Cr992       O994   1.773       .  S
Cr993       O994   1.774       .  S
O995      Cr1013   1.968       .  S
O995       C1003   1.277       .  A
O996      Cr1013   1.970       .  S
O996        C997   1.246       .  A
C997        O998   1.247       .  A
C997       C1821   1.467       .  S
O998      Cr1014   1.985       .  S
O999      Cr1014   1.995       .  S
O999       C1000   1.261       .  A
C1000      O1001   1.258       .  A
C1000      C1749   1.481       .  S
O1001     Cr1015   1.976       .  S
O1002     Cr1015   2.060       .  S
O1002      C1003   1.293       .  A
C1003      C1716   1.499       .  S
O1004     Cr1013   1.978       .  S
O1004      C1012   1.243       .  A
O1005     Cr1013   1.990       .  S
O1005      C1006   1.277       .  A
C1006      O1007   1.284       .  A
C1006      C1737   1.475       .  S
O1007     Cr1014   2.030       .  S
O1008     Cr1014   1.946       .  S
O1008      C1009   1.255       .  A
C1009      O1010   1.267       .  A
C1009      C1812   1.485       .  S
O1010     Cr1015   2.006       .  S
O1011     Cr1015   1.998       .  S
O1011      C1012   1.246       .  A
C1012      C1689   1.476       .  S
Cr1013     O1016   1.771       .  S
Cr1014     O1016   1.768       .  S
Cr1015     O1016   1.767       .  S
O1017     Cr1035   2.053       .  S
O1017      C1025   1.282       .  A
O1018     Cr1035   1.976       .  S
O1018      C1019   1.258       .  A
C1019      O1020   1.264   1_554  A
C1019      C1665   1.489   1_554  S
O1020     Cr1036   2.017   1_556  S
O1021     Cr1036   1.982   1_556  S
O1021      C1022   1.261   1_556  A
C1022      O1023   1.261       .  A
C1022      C1644   1.465   1_554  S
O1023     Cr1037   1.994       .  S
O1024     Cr1037   1.972       .  S
O1024      C1025   1.266       .  A
C1025      C1632   1.510       .  S
O1026     Cr1035   1.999       .  S
O1026      C1034   1.258       .  A
O1027     Cr1035   2.051       .  S
O1027      C1028   1.275       .  A
C1028      O1029   1.250       .  A
C1028      C1656   1.480       .  S
O1029     Cr1036   1.940       .  S
O1030     Cr1036   1.995       .  S
O1030      C1031   1.266       .  A
C1031      O1032   1.266       .  A
C1031      C1680   1.469       .  S
O1032     Cr1037   1.994       .  S
O1033     Cr1037   1.990       .  S
O1033      C1034   1.257       .  A
C1034      C1617   1.478       .  S
Cr1035     O1038   1.770       .  S
Cr1036     O1038   1.766       .  S
Cr1037     O1038   1.768       .  S
O1039     Cr1057   1.979       .  S
O1039      C1047   1.269       .  A
O1040     Cr1057   2.011       .  S
O1040      C1041   1.267       .  A
C1041      O1042   1.267   1_554  A
C1041      C1605   1.486   1_554  S
O1042     Cr1058   1.998   1_556  S
O1043     Cr1058   2.010   1_556  S
O1043      C1044   1.261   1_556  A
C1044      O1045   1.249       .  A
C1044      C1581   1.470       .  S
O1045     Cr1059   1.946       .  S
O1046     Cr1059   2.043       .  S
O1046      C1047   1.279       .  A
C1047      C1629   1.508       .  S
O1048     Cr1057   2.010       .  S
O1048      C1056   1.260       .  A
O1049     Cr1057   2.004       .  S
O1049      C1050   1.269       .  A
C1050      O1051   1.262       .  A
C1050      C1569   1.479       .  S
O1051     Cr1058   1.984       .  S
O1052     Cr1058   1.958       .  S
O1052      C1053   1.258       .  A
C1053      O1054   1.275       .  A
C1053      C1596   1.500       .  S
O1054     Cr1059   2.048       .  S
O1055     Cr1059   1.977       .  S
O1055      C1056   1.252       .  A
C1056      C1560   1.483       .  S
Cr1057     O1060   1.771       .  S
Cr1058     O1060   1.771       .  S
Cr1059     O1060   1.765       .  S
O1061     Cr1079   2.015       .  S
O1061      C1069   1.269       .  A
O1062     Cr1079   1.973       .  S
O1062      C1063   1.257   1_556  A
C1063      O1064   1.262       .  A
C1063      C1677   1.477       .  S
O1064     Cr1080   2.007   1_554  S
O1065     Cr1080   1.976   1_554  S
O1065      C1066   1.260   1_554  A
C1066      O1067   1.267       .  A
C1066      C1572   1.462   1_556  S
O1067     Cr1081   1.993       .  S
O1068     Cr1081   1.991       .  S
O1068      C1069   1.265       .  A
C1069      C1545   1.502       .  S
O1070     Cr1079   1.971       .  S
O1070      C1078   1.256       .  A
O1071     Cr1079   2.013       .  S
O1071      C1072   1.267       .  A
C1072      O1073   1.255       .  A
C1072      C1584   1.454       .  S
O1073     Cr1080   1.951       .  S
O1074     Cr1080   1.993       .  S
O1074      C1075   1.262       .  A
C1075      O1076   1.265       .  A
C1075      C1668   1.475       .  S
O1076     Cr1081   2.003       .  S
O1077     Cr1081   2.008       .  S
O1077      C1078   1.265       .  A
C1078      C1692   1.489       .  S
Cr1079     O1082   1.766       .  S
Cr1080     O1082   1.773       .  S
Cr1081     O1082   1.766       .  S
O1083     Cr1101   2.025       .  S
O1083      C1091   1.274       .  A
O1084     Cr1101   1.976       .  S
O1084      C1085   1.257       .  A
C1085      O1086   1.265   1_556  A
C1085      C1593   1.485   1_556  S
O1086     Cr1102   2.021   1_554  S
O1087     Cr1102   2.006       .  S
O1087      C1088   1.267       .  A
C1088      O1089   1.263       .  A
C1088      C1653   1.488   1_556  S
O1089     Cr1103   1.983       .  S
O1090     Cr1103   1.980       .  S
O1090      C1091   1.265       .  A
C1091      C1548   1.501       .  S
O1092     Cr1101   1.989       .  S
O1092      C1100   1.256       .  A
O1093     Cr1101   2.013       .  S
O1093      C1094   1.269       .  A
C1094      O1095   1.257       .  A
C1094      C1641   1.476       .  S
O1095     Cr1102   1.955       .  S
O1096     Cr1102   1.996       .  S
O1096      C1097   1.266       .  A
C1097      O1098   1.268       .  A
C1097      C1608   1.473       .  S
O1098     Cr1103   2.003       .  S
O1099     Cr1103   2.002       .  S
O1099      C1100   1.259       .  A
C1100      C1704   1.487       .  S
Cr1101     O1104   1.770       .  S
Cr1102     O1104   1.775       .  S
Cr1103     O1104   1.768       .  S
O1105     Cr1123   1.974       .  S
O1105      C1113   1.264       .  A
O1106     Cr1123   1.983       .  S
O1106      C1107   1.263       .  A
C1107      O1108   1.264       .  A
C1107      C1533   1.484       .  S
O1108     Cr1124   1.991       .  S
O1109     Cr1124   1.987       .  S
O1109      C1110   1.255       .  A
C1110      O1111   1.254       .  A
C1110      C1497   1.470       .  S
O1111     Cr1125   1.973       .  S
O1112     Cr1125   2.028       .  S
O1112      C1113   1.273       .  A
C1113      C1485   1.505       .  S
O1114     Cr1123   2.004       .  S
O1114      C1122   1.262       .  A
O1115     Cr1123   2.020       .  S
O1115      C1116   1.271       .  A
C1116      O1117   1.257       .  A
C1116      C1509   1.486       .  S
O1117     Cr1124   1.966       .  S
O1118     Cr1124   1.949       .  S
O1118      C1119   1.257       .  A
C1119      O1120   1.273       .  A
C1119      C1524   1.477       .  S
O1120     Cr1125   2.037       .  S
O1121     Cr1125   1.985       .  S
O1121      C1122   1.258       .  A
C1122      C1788   1.500       .  S
Cr1123     O1126   1.771       .  S
Cr1124     O1126   1.777       .  S
Cr1125     O1126   1.775       .  S
O1127     Cr1145   2.033       .  S
O1127      C1135   1.275       .  A
O1128     Cr1145   1.951       .  S
O1128      C1129   1.252       .  A
C1129      O1130   1.265       .  A
C1129      C1521   1.490       .  S
O1130     Cr1146   2.030       .  S
O1131     Cr1146   2.012       .  S
O1131      C1132   1.271       .  A
C1132      O1133   1.263       .  A
C1132      C1461   1.497       .  S
O1133     Cr1147   1.987       .  S
O1134     Cr1147   1.965       .  S
O1134      C1135   1.263       .  A
C1135      C1449   1.499       .  S
O1136     Cr1145   1.974       .  S
O1136      C1144   1.254       .  A
O1137     Cr1145   2.035       .  S
O1137      C1138   1.273       .  A
C1138      O1139   1.256       .  A
C1138      C1473   1.485       .  S
O1139     Cr1146   1.958       .  S
O1140     Cr1146   1.980       .  S
O1140      C1141   1.266       .  A
C1141      O1142   1.266       .  A
C1141      C1536   1.465       .  S
O1142     Cr1147   1.998       .  S
O1143     Cr1147   2.000       .  S
O1143      C1144   1.259       .  A
C1144      C1437   1.486       .  S
Cr1145     O1148   1.762       .  S
Cr1146     O1148   1.774       .  S
Cr1147     O1148   1.767       .  S
O1149     Cr1167   1.968       .  S
O1149      C1157   1.264       .  A
O1150     Cr1167   1.996       .  S
O1150      C1151   1.264       .  A
C1151      O1152   1.259       .  A
C1151      C1425   1.465       .  S
O1152     Cr1168   1.984       .  S
O1153     Cr1168   1.997       .  S
O1153      C1154   1.259       .  A
C1154      O1155   1.260       .  A
C1154      C1512   1.471       .  S
O1155     Cr1169   1.974       .  S
O1156     Cr1169   2.027       .  S
O1156      C1157   1.274       .  A
C1157      C1452   1.492       .  S
O1158     Cr1167   1.986       .  S
O1158      C1166   1.260       .  A
O1159     Cr1167   1.988       .  S
O1159      C1160   1.262       .  A
C1160      O1161   1.262       .  A
C1160      C1500   1.465       .  S
O1161     Cr1168   1.988       .  S
O1162     Cr1168   1.956       .  S
O1162      C1163   1.255       .  A
C1163      O1164   1.270       .  A
C1163      C1413   1.467       .  S
O1164     Cr1169   2.023       .  S
O1165     Cr1169   2.003       .  S
O1165      C1166   1.261       .  A
C1166      C1401   1.496       .  S
Cr1167     O1170   1.766       .  S
Cr1168     O1170   1.776       .  S
Cr1169     O1170   1.772       .  S
O1171     Cr1189   2.052       .  S
O1171      C1179   1.289       .  A
O1172     Cr1189   1.978       .  S
O1172      C1173   1.258       .  A
C1173      O1174   1.255       .  A
C1173      C1416   1.477       .  S
O1174     Cr1190   1.976       .  S
O1175     Cr1190   2.000       .  S
O1175      C1176   1.254       .  A
C1176      O1177   1.250       .  A
C1176      C1476   1.481       .  S
O1177     Cr1191   1.991       .  S
O1178     Cr1191   1.980       .  S
O1178      C1179   1.277       .  A
C1179      C1488   1.513       .  S
O1180     Cr1189   1.996       .  S
O1180      C1188   1.248       .  A
O1181     Cr1189   2.006       .  S
O1181      C1182   1.267       .  A
C1182      O1183   1.260       .  A
C1182      C1464   1.473       .  S
O1183     Cr1190   1.967       .  S
O1184     Cr1190   2.001       .  S
O1184      C1185   1.273       .  A
C1185      O1186   1.275       .  A
C1185      C1428   1.482       .  S
O1186     Cr1191   1.996       .  S
O1187     Cr1191   1.977       .  S
O1187      C1188   1.247       .  A
C1188      C1725   1.494       .  S
Cr1189     O1192   1.778       .  S
Cr1190     O1192   1.774       .  S
Cr1191     O1192   1.774       .  S
O1193     Cr1211   2.028       .  S
O1193      C1201   1.273       .  A
O1194     Cr1211   1.971       .  S
O1194      C1195   1.255       .  A
C1195      O1196   1.261       .  A
C1195      C1377   1.481       .  S
O1196     Cr1212   2.005       .  S
O1197     Cr1212   1.990       .  S
O1197      C1198   1.266       .  A
C1198      O1199   1.266       .  A
C1198      C1356   1.477       .  S
O1199     Cr1213   1.996       .  S
O1200     Cr1213   1.983       .  S
O1200      C1201   1.265       .  A
C1201      C1341   1.510       .  S
O1202     Cr1211   1.972       .  S
O1202      C1210   1.255       .  A
O1203     Cr1211   2.029       .  S
O1203      C1204   1.272       .  A
C1204      O1205   1.257       .  A
C1204      C1365   1.482       .  S
O1205     Cr1212   1.957       .  S
O1206     Cr1212   1.977       .  S
O1206      C1207   1.261       .  A
C1207      O1208   1.268       .  A
C1207      C1389   1.476       .  S
O1208     Cr1213   2.013       .  S
O1209     Cr1213   2.003       .  S
O1209      C1210   1.261       .  A
C1210      C1440   1.485       .  S
Cr1211     O1214   1.769       .  S
Cr1212     O1214   1.769       .  S
Cr1213     O1214   1.768       .  S
O1215     Cr1233   2.013       .  S
O1215      C1223   1.270       .  A
O1216     Cr1233   1.981       .  S
O1216      C1217   1.260       .  A
C1217      O1218   1.264       .  A
C1217      C1317   1.488       .  S
O1218     Cr1234   2.018       .  S
O1219     Cr1234   1.999       .  S
O1219      C1220   1.265       .  A
C1220      O1221   1.261       .  A
C1220      C1368   1.475       .  S
O1221     Cr1235   1.991       .  S
O1222     Cr1235   1.996       .  S
O1222      C1223   1.268       .  A
C1223      C1305   1.500       .  S
O1224     Cr1233   1.991       .  S
O1224      C1232   1.259       .  A
O1225     Cr1233   2.015       .  S
O1225      C1226   1.268       .  A
C1226      O1227   1.257       .  A
C1226      C1353   1.477       .  S
O1227     Cr1234   1.965       .  S
O1228     Cr1234   1.993       .  S
O1228      C1229   1.264       .  A
C1229      O1230   1.267       .  A
C1229      C1329   1.474       .  S
O1230     Cr1235   2.001       .  S
O1231     Cr1235   1.991       .  S
O1231      C1232   1.260       .  A
C1232      C1557   1.480       .  S
Cr1233     O1236   1.774       .  S
Cr1234     O1236   1.773       .  S
Cr1235     O1236   1.772       .  S
O1237     Cr1255   1.962       .  S
O1237      C1245   1.265       .  A
O1238     Cr1255   2.006       .  S
O1238      C1239   1.262       .  A
C1239      O1240   1.258       .  A
C1239      C1332   1.471       .  S
O1240     Cr1256   1.986       .  S
O1241     Cr1256   2.010       .  S
O1241      C1242   1.262       .  A
C1242      O1243   1.255       .  A
C1242      C1281   1.477       .  S
O1243     Cr1257   1.955       .  S
O1244     Cr1257   2.054       .  S
O1244      C1245   1.282       .  A
C1245      C1344   1.500       .  S
O1246     Cr1255   1.995       .  S
O1246      C1254   1.258       .  A
O1247     Cr1255   1.979       .  S
O1247      C1248   1.262       .  A
C1248      O1249   1.268       .  A
C1248      C1293   1.459       .  S
O1249     Cr1256   2.000       .  S
O1250     Cr1256   1.951       .  S
O1250      C1251   1.256       .  A
C1251      O1252   1.275       .  A
C1251      C1320   1.501       .  S
O1252     Cr1257   2.046       .  S
O1253     Cr1257   1.997       .  S
O1253      C1254   1.256       .  A
C1254      C1404   1.486       .  S
Cr1255     O1258   1.771       .  S
Cr1256     O1258   1.774       .  S
Cr1257     O1258   1.770       .  S
O1259     Cr1277   2.033       .  S
O1259      C1267   1.279       .  A
O1260     Cr1277   1.972       .  S
O1260      C1261   1.260       .  A
C1261      O1262   1.261       .  A
C1261      C1392   1.476       .  S
O1262     Cr1278   1.995       .  S
O1263     Cr1278   1.988       .  S
O1263      C1264   1.255       .  A
C1264      O1265   1.255       .  A
C1264      C1296   1.470       .  S
O1265     Cr1279   1.980       .  S
O1266     Cr1279   1.981       .  S
O1266      C1267   1.270       .  A
C1267      C1308   1.498       .  S
O1268     Cr1277   2.009       .  S
O1268      C1276   1.257       .  A
O1269     Cr1277   2.014       .  S
O1269      C1270   1.267       .  A
C1270      O1271   1.254       .  A
C1270      C1284   1.470       .  S
O1271     Cr1278   1.956       .  S
O1272     Cr1278   2.002       .  S
O1272      C1273   1.271       .  A
C1273      O1274   1.270       .  A
C1273      C1380   1.469       .  S
O1274     Cr1279   1.991       .  S
O1275     Cr1279   1.982       .  S
O1275      C1276   1.253       .  A
C1276      C1620   1.489       .  S
Cr1277     O1280   1.773       .  S
Cr1278     O1280   1.775       .  S
Cr1279     O1280   1.773       .  S
C1281      C3138   1.401   1_455  A
C1281      C1286   1.413       .  A
C1282      C3137   1.402       .  A
C1282      C1283   1.390       .  A
C1282      H3143   1.086       .  S
C1283      C1284   1.409       .  A
C1283      C1290   1.444       .  S
C1284      C1285   1.405       .  A
C1285      C3142   1.410       .  A
C1285      H1288   1.084       .  S
C1286      C3141   1.411   1_455  A
C1286      C1289   1.442       .  S
H1287      C3138   1.086   1_455  S
C1289      N1291   1.157       .  T
C1290      N1292   1.157       .  T
C1293      C1294   1.405       .  A
C1293      C1298   1.404       .  A
C1294      C1295   1.403       .  A
C1294      H1299   1.085       .  S
C1295      C1296   1.408       .  A
C1295      C1302   1.443       .  S
C1296      C1297   1.406       .  A
C1297      C1298   1.392       .  A
C1297      H1300   1.086       .  S
C1298      C1301   1.446       .  S
C1301      N1303   1.157       .  T
C1302      N1304   1.157       .  T
C1305      C1306   1.409       .  A
C1305      C1310   1.415       .  A
C1306      C1307   1.405       .  A
C1306      H1311   1.085       .  S
C1307      C1308   1.415       .  A
C1307      C1314   1.444       .  S
C1308      C1309   1.409       .  A
C1309      C1310   1.408       .  A
C1309      H1312   1.085       .  S
C1310      C1313   1.443       .  S
C1313      N1315   1.157       .  T
C1314      N1316   1.157       .  T
C1317      C1318   1.408       .  A
C1317      C1322   1.408       .  A
C1318      C1319   1.411       .  A
C1318      H1323   1.084       .  S
C1319      C1320   1.416       .  A
C1319      C1326   1.442       .  S
C1320      C1321   1.412       .  A
C1321      C1322   1.399       .  A
C1321      H1324   1.085       .  S
C1322      C1325   1.444       .  S
C1325      N1327   1.157       .  T
C1326      N1328   1.157       .  T
C1329      C1330   1.405       .  A
C1329      C1334   1.408       .  A
C1330      C1331   1.398       .  A
C1330      H1335   1.082       .  S
C1331      C1338   1.444       .  S
C1332      C1333   1.406       .  A
C1333      H1336   1.085       .  S
C1334      C1337   1.443       .  S
C1337      N1339   1.157       .  T
C1338      N1340   1.157       .  T
C1341      C3202   1.419       .  A
C1342      C3199   1.409       .  A
C1342      H1347   1.085       .  S
C1343      C3198   1.412   1_455  A
C1343      C1344   1.415       .  A
C1343      C3206   1.443   1_455  S
C1345      C1346   1.403       .  A
C1345      H1348   1.085       .  S
C1346      C3197   1.417   1_455  A
C1346      C1349   1.445       .  S
C1349      N1351   1.157       .  T
C1350      C3199   1.443       .  S
C1350      N1352   1.157       .  T
C1353      C1354   1.408       .  A
C1353      C1358   1.409       .  A
C1354      C3211   1.402       .  A
C1354      H1359   1.082       .  S
C1355      C3210   1.403       .  A
C1355      C1356   1.407       .  A
C1355      C1362   1.443       .  S
C1356      C3213   1.407       .  A
C1357      C3212   1.406   1_455  A
C1357      C1358   1.398       .  A
C1357      H1360   1.084   1_455  S
C1358      C1361   1.445       .  S
C1361      N1363   1.157       .  T
C1362      N1364   1.157       .  T
C1365      C1366   1.410       .  A
C1365      C1370   1.409       .  A
C1366      C1367   1.402       .  A
C1366      H1371   1.084       .  S
C1367      C1368   1.405       .  A
C1367      C1374   1.443       .  S
C1368      C1369   1.408       .  A
C1369      C1370   1.401       .  A
C1369      H1372   1.085       .  S
C1370      C1373   1.444       .  S
C1373      N1375   1.157       .  T
C1374      N1376   1.157       .  T
C1377      C1378   1.408       .  A
C1378      H1383   1.085       .  S
C1379      C1380   1.407       .  A
C1379      C1386   1.443       .  S
C1380      C1381   1.403       .  A
C1381      C1382   1.396       .  A
C1381      H1384   1.085       .  S
C1382      C1385   1.445       .  S
C1385      N1387   1.157       .  T
C1386      N1388   1.157       .  T
C1389      C1390   1.402       .  A
C1389      C1394   1.412       .  A
C1390      C1391   1.389       .  A
C1390      H1395   1.086       .  S
C1391      C1392   1.410       .  A
C1391      C1398   1.446       .  S
C1392      C1393   1.408       .  A
C1393      C1394   1.411       .  A
C1393      H1396   1.084       .  S
C1394      C1397   1.443       .  S
C1397      N1399   1.157       .  T
C1398      N1400   1.157       .  T
C1401      C1402   1.407       .  A
C1401      C1406   1.418       .  A
C1402      C1403   1.395       .  A
C1402      H1407   1.085       .  S
C1403      C1404   1.411       .  A
C1403      C1410   1.446       .  S
C1404      C1405   1.407       .  A
C1405      C1406   1.413       .  A
C1405      H1408   1.084       .  S
C1406      C1409   1.443       .  S
C1409      N1411   1.157       .  T
C1410      N1412   1.157       .  T
C1413      C1414   1.398       .  A
C1413      C1418   1.411       .  A
C1414      C1415   1.396       .  A
C1414      H1419   1.086       .  S
C1415      C1416   1.415       .  A
C1415      C1422   1.445       .  S
C1416      C1417   1.404       .  A
C1417      C1418   1.404       .  A
C1417      H1420   1.085       .  S
C1418      C1421   1.444       .  S
C1421      N1423   1.157       .  T
C1422      N1424   1.157       .  T
C1425      C1430   1.409       .  A
C1426      C1427   1.390       .  A
C1426      H1431   1.086       .  S
C1427      C1428   1.421       .  A
C1427      C1434   1.444       .  S
C1428      C1429   1.407       .  A
C1429      H1432   1.084       .  S
C1430      C1433   1.442       .  S
C1433      N1435   1.157       .  T
C1434      N1436   1.157       .  T
C1437      C1438   1.406       .  A
C1437      C1442   1.414       .  A
C1438      C1439   1.400       .  A
C1438      H1443   1.085       .  S
C1439      C1440   1.414       .  A
C1439      C1446   1.445       .  S
C1440      C1441   1.405       .  A
C1441      C1442   1.401       .  A
C1441      H1444   1.085       .  S
C1442      C1445   1.445       .  S
C1445      N1447   1.157       .  T
C1446      N1448   1.158       .  T
C1449      C1450   1.408       .  A
C1450      C1451   1.401       .  A
C1450      H1455   1.085       .  S
C1451      C1458   1.445       .  S
C1452      C1453   1.408       .  A
C1453      C1454   1.407       .  A
C1453      H1456   1.085       .  S
C1454      C1457   1.443       .  S
C1457      N1459   1.157       .  T
C1458      N1460   1.157       .  T
C1461      C1462   1.409       .  A
C1461      C1466   1.426       .  A
C1462      C1463   1.413       .  A
C1462      H1467   1.084       .  S
C1463      C1464   1.412       .  A
C1463      C1470   1.443       .  S
C1464      C1465   1.392       .  A
C1465      C1466   1.392       .  A
C1465      H1468   1.086       .  S
C1466      C1469   1.446       .  S
C1469      N1471   1.158       .  T
C1470      N1472   1.157       .  T
C1473      C1474   1.410       .  A
C1473      C1478   1.409       .  A
C1474      C3331   1.404       .  A
C1474      H1479   1.084       .  S
C1475      C3330   1.402       .  A
C1475      C1476   1.408   1_655  A
C1475      C1482   1.445   1_655  S
C1476      C1477   1.408       .  A
C1477      C3334   1.402   1_455  A
C1477      H1480   1.085       .  S
C1478      C3333   1.403       .  A
C1478      C1481   1.444       .  S
C1481      N1483   1.157       .  T
C1482      N1484   1.157       .  T
C1485      C1486   1.408       .  A
C1485      C3346   1.419       .  A
C1486      C1487   1.402       .  A
C1486      H1491   1.085       .  S
C1487      C3344   1.418       .  A
C1487      C1494   1.445       .  S
C1488      C3343   1.421   1_455  A
C1488      C1489   1.412       .  A
C1489      C1490   1.415       .  A
C1489      H1492   1.084       .  S
C1490      C3341   1.419   1_455  A
C1490      C1493   1.443       .  S
C1493      N1495   1.157       .  T
C1494      N1496   1.157       .  T
C1497      C3354   1.409       .  A
C1497      C3358   1.406       .  A
C1498      C3353   1.409       .  A
C1498      C1499   1.402       .  A
C1498      H3359   1.084   1_455  S
C1499      C1500   1.406       .  A
C1499      C1506   1.444       .  S
C1500      C1501   1.402       .  A
C1501      C1502   1.390       .  A
C1501      H1504   1.082       .  S
C1502      C3353   1.408       .  A
C1502      C3361   1.446       .  S
H1503      C3354   1.084       .  S
C1505      C3358   1.445       .  S
C1505      N1507   1.157       .  T
C1506      N1508   1.157       .  T
C1509      C1510   1.407       .  A
C1509      C1514   1.423       .  A
C1510      C1511   1.412       .  A
C1510      H1515   1.084       .  S
C1511      C1512   1.412       .  A
C1511      C1518   1.442       .  S
C1512      C1513   1.392       .  A
C1513      C1514   1.386       .  A
C1513      H1516   1.087       .  S
C1514      C1517   1.446       .  S
C1517      N1519   1.157       .  T
C1518      N1520   1.157       .  T
C1522      C1523   1.390       .  A
C1523      C1524   1.409       .  A
C1523      C1530   1.447       .  S
C1524      C1525   1.405       .  A
C1525      C1526   1.413       .  A
C1525      H1528   1.083       .  S
C1529      N1531   1.157       .  T
C1530      N1532   1.157       .  T
C1533      C1534   1.410       .  A
C1533      C1538   1.421       .  A
C1534      C1535   1.410       .  A
C1534      H1539   1.084       .  S
C1535      C1536   1.409       .  A
C1535      C1542   1.443       .  S
C1536      C1537   1.394       .  A
C1537      C1538   1.382       .  A
C1537      H1540   1.084       .  S
C1538      C1541   1.448       .  S
C1541      N1543   1.158       .  T
C1542      N1544   1.157       .  T
C1545      C1546   1.410       .  A
C1545      C3406   1.417       .  A
C1546      C3403   1.406       .  A
C1546      H1551   1.084       .  S
C1547      C3402   1.404       .  A
C1547      C1548   1.417   1_655  A
C1547      C1554   1.445       .  S
C1548      C1549   1.409       .  A
C1549      C1550   1.408       .  A
C1549      H1552   1.084       .  S
C1550      C3401   1.417   1_455  A
C1550      C1553   1.443       .  S
C1553      N1555   1.157       .  T
C1554      N3412   1.157       .  T
N1556      C3410   1.157       .  T
C1557      C1558   1.403       .  A
C1557      C1562   1.411       .  A
C1558      C1559   1.399       .  A
C1558      H1563   1.085       .  S
C1559      C1560   1.413       .  A
C1559      C1566   1.445       .  S
C1560      C1561   1.407       .  A
C1561      C1562   1.406       .  A
C1561      H1564   1.085       .  S
C1562      C1565   1.443       .  S
C1565      N1567   1.157       .  T
C1566      N1568   1.157       .  T
C1569      C1570   1.407       .  A
C1569      C1574   1.422       .  A
C1570      C3427   1.406   1_455  A
C1570      H1575   1.084       .  S
C1571      C3426   1.407       .  A
C1571      C1572   1.409       .  A
C1571      C1578   1.443       .  S
C1572      C3429   1.391   1_554  A
C1573      C3428   1.392   1_456  A
C1573      C1574   1.386   1_556  A
C1573      H1576   1.086       .  S
C1574      C1577   1.447   1_554  S
C1577      N1579   1.158       .  T
C1578      N1580   1.157       .  T
C1581      C1582   1.404   1_554  A
C1581      C1586   1.417       .  A
C1582      C1583   1.403       .  A
C1582      H1587   1.084       .  S
C1583      C1584   1.408       .  A
C1583      C1590   1.443       .  S
C1584      C1585   1.393   1_556  A
C1585      C1586   1.388       .  A
C1585      H1588   1.086       .  S
C1586      C1589   1.447       .  S
C1589      N1591   1.157       .  T
C1590      N1592   1.157       .  T
C1593      C1594   1.408       .  A
C1593      C1598   1.406       .  A
C1594      C1595   1.412       .  A
C1594      H1599   1.084       .  S
C1595      C1596   1.415       .  A
C1595      C1602   1.441       .  S
C1596      C1597   1.411       .  A
C1597      C1598   1.399       .  A
C1597      H1600   1.082       .  S
C1598      C1601   1.445       .  S
C1601      N1603   1.157   1_554  T
C1602      N1604   1.157       .  T
C1605      C1606   1.406       .  A
C1606      H1611   1.085       .  S
C1607      C1608   1.408       .  A
C1607      C1614   1.446       .  S
C1608      C1609   1.406       .  A
C1609      C1610   1.409       .  A
C1609      H1612   1.084       .  S
C1610      C1613   1.441       .  S
C1613      N1615   1.157       .  T
C1614      N1616   1.157       .  T
C1617      C1618   1.399       .  A
C1617      C1622   1.411       .  A
C1618      C1619   1.396       .  A
C1618      H1623   1.086       .  S
C1619      C1620   1.417       .  A
C1619      C1626   1.446       .  S
C1620      C1621   1.409       .  A
C1621      C1622   1.410       .  A
C1621      H1624   1.084       .  S
C1622      C1625   1.443       .  S
C1625      N1627   1.157       .  T
C1626      N1628   1.157       .  T
C1629      C1634   1.420       .  A
C1630      C1631   1.404       .  A
C1630      H1635   1.085       .  S
C1631      C1632   1.421       .  A
C1631      C1638   1.445       .  S
C1633      C1634   1.414       .  A
C1633      H1636   1.084       .  S
C1634      C1637   1.443       .  S
C1637      N1639   1.157       .  T
C1638      N1640   1.158       .  T
C1641      C1642   1.410       .  A
C1641      C1646   1.411       .  A
C1642      C1643   1.398       .  A
C1642      H1647   1.084       .  S
C1643      C1644   1.403       .  A
C1643      C1650   1.444       .  S
C1644      C1645   1.404       .  A
C1645      C1646   1.398       .  A
C1645      H1648   1.085       .  S
C1646      C1649   1.444       .  S
C1649      N1651   1.157       .  T
C1650      N1652   1.157       .  T
C1653      C3510   1.404   1_454  A
C1653      C1658   1.416       .  A
C1654      C3509   1.403   1_556  A
C1654      C1655   1.387       .  A
C1654      H1659   1.086       .  S
C1655      C1656   1.412   1_556  A
C1655      C1662   1.447       .  S
C1656      C1657   1.409       .  A
C1657      C3514   1.418       .  A
C1657      H1660   1.084       .  S
C1658      C3513   1.415   1_455  A
C1658      C1661   1.442       .  S
C1661      N1663   1.157       .  T
C1662      N1664   1.157       .  T
C1666      C1667   1.405   1_545  A
C1667      C1668   1.408       .  A
C1667      C1674   1.444       .  S
C1668      C1669   1.405       .  A
C1669      C1670   1.401       .  A
C1669      H1672   1.085       .  S
C1673      N1675   1.157       .  T
C1674      N1676   1.157       .  T
C1677      C1678   1.408       .  A
C1677      C1682   1.410       .  A
C1678      C1679   1.403       .  A
C1678      H1683   1.085       .  S
C1679      C1680   1.407       .  A
C1679      C1686   1.444       .  S
C1680      C1681   1.404       .  A
C1681      C1682   1.396       .  A
C1681      H1684   1.085       .  S
C1682      C1685   1.445       .  S
C1685      N1687   1.157   1_554  T
C1686      N1688   1.157       .  T
C1689      C1690   1.401       .  A
C1689      C1694   1.408       .  A
C1690      C1691   1.398       .  A
C1690      H1695   1.085       .  S
C1691      C1692   1.418       .  A
C1691      C1698   1.445       .  S
C1692      C1693   1.409       .  A
C1693      C1694   1.404       .  A
C1693      H1696   1.084       .  S
C1694      C1697   1.443       .  S
C1697      N1699   1.157       .  T
C1698      N1700   1.157       .  T
C1701      C1702   1.405       .  A
C1701      C1706   1.412       .  A
C1702      C1703   1.408       .  A
C1702      H1707   1.085       .  S
C1703      C1704   1.415       .  A
C1703      C1710   1.444       .  S
C1704      C1705   1.404       .  A
C1705      C1706   1.400       .  A
C1705      H1708   1.085       .  S
C1706      C1709   1.444       .  S
C1709      N1711   1.157       .  T
C1710      N1712   1.157       .  T
C1713      C1714   1.412       .  A
C1713      C1718   1.418       .  A
C1714      C1715   1.409       .  A
C1714      H1719   1.084       .  S
C1715      C1716   1.414       .  A
C1715      C1722   1.444       .  S
C1716      C1717   1.408       .  A
C1717      C1718   1.405       .  A
C1717      H1720   1.085       .  S
C1718      C1721   1.444       .  S
C1721      N1723   1.157       .  T
C1722      N1724   1.157       .  T
C1725      C1726   1.406       .  A
C1725      C1730   1.419       .  A
C1726      C1727   1.395       .  A
C1726      H1731   1.085       .  S
C1727      C1728   1.410       .  A
C1727      C1734   1.446       .  S
C1728      C1729   1.404       .  A
C1729      C1730   1.410       .  A
C1729      H1732   1.085       .  S
C1730      C1733   1.443       .  S
C1733      N1735   1.157       .  T
C1734      N1736   1.157       .  T
C1737      C1738   1.399       .  A
C1737      C1742   1.411       .  A
C1738      C3595   1.399       .  A
C1738      H1743   1.085       .  S
C1739      C3594   1.397   1_455  A
C1739      C1740   1.415       .  A
C1739      C1746   1.445       .  S
C1740      C1741   1.406       .  A
C1741      C3598   1.410   1_455  A
C1741      H1744   1.084       .  S
C1742      C3597   1.408       .  A
C1742      C1745   1.441       .  S
C1745      N1747   1.157       .  T
C1746      N1748   1.157       .  T
C1749      C1750   1.403       .  A
C1749      C1754   1.409       .  A
C1750      C1751   1.400       .  A
C1750      H1755   1.085       .  S
C1751      C1752   1.411       .  A
C1751      C1758   1.441       .  S
C1752      C1753   1.410       .  A
C1753      C1754   1.407       .  A
C1753      H1756   1.084       .  S
C1754      C1757   1.443       .  S
C1757      N1759   1.157       .  T
C1758      N1760   1.156       .  T
C1761      C1762   1.403       .  A
C1761      C1766   1.408       .  A
C1762      C1763   1.395       .  A
C1762      H1767   1.084       .  S
C1763      C1764   1.404       .  A
C1763      C1770   1.443       .  S
C1764      C1765   1.404       .  A
C1765      C1766   1.401       .  A
C1765      H1768   1.085       .  S
C1766      C1769   1.443       .  S
C1769      N1771   1.157       .  T
C1770      N1772   1.156       .  T
C1773      C1774   1.408       .  A
C1774      H1779   1.084       .  S
C1775      C1776   1.412       .  A
C1775      C1782   1.443       .  S
C1776      C1777   1.396       .  A
C1777      C1778   1.392       .  A
C1777      H1780   1.086       .  S
C1778      C1781   1.447       .  S
C1781      N1783   1.157       .  T
C1782      N1784   1.157       .  T
C1785      C1786   1.406       .  A
C1785      C1790   1.413       .  A
C1786      C1787   1.407       .  A
C1786      H1791   1.085       .  S
C1787      C1788   1.418       .  A
C1787      C1794   1.444       .  S
C1788      C1789   1.409       .  A
C1789      C1790   1.404       .  A
C1789      H1792   1.084       .  S
C1790      C1793   1.444       .  S
C1793      N1795   1.157       .  T
C1794      N1796   1.157       .  T
C1797      C3658   1.417       .  A
C1798      C3655   1.401       .  A
C1798      H1803   1.085       .  S
C1799      C3654   1.399       .  A
C1799      C1800   1.413   1_655  A
C1799      C3662   1.444       .  S
C1801      C1802   1.408       .  A
C1801      H1804   1.085       .  S
C1802      C3653   1.417   1_455  A
C1802      C1805   1.443       .  S
C1805      N1807   1.157       .  T
C1806      C3655   1.444       .  S
C1806      N1808   1.157       .  T
C1809      C1814   1.408       .  A
C1810      C1811   1.389       .  A
C1810      H1815   1.086       .  S
C1811      C1812   1.424       .  A
C1811      C1818   1.446       .  S
C1812      C1813   1.407       .  A
C1813      H1816   1.084       .  S
C1814      C1817   1.443       .  S
C1817      N1819   1.157       .  T
C1818      N1820   1.157       .  T
C1821      C1822   1.397       .  A
C1821      C1826   1.413       .  A
C1822      C1823   1.382       .  A
C1822      H1827   1.086       .  S
C1823      C1824   1.412       .  A
C1823      C1830   1.447       .  S
C1824      C1825   1.403       .  A
C1825      C1826   1.407       .  A
C1825      H1828   1.083       .  S
C1826      C1829   1.443       .  S
C1829      N1831   1.157       .  T
C1830      N1832   1.157       .  T
C1833      C1834   1.404       .  A
C1833      C1838   1.407       .  A
C1834      C3691   1.397       .  A
C1834      H1839   1.085       .  S
C1835      C3690   1.397       .  A
C1835      C1836   1.410       .  A
C1835      C1842   1.445       .  S
C1836      C3693   1.409       .  A
C1837      C3692   1.409   1_455  A
C1837      C1838   1.405       .  A
C1837      H1840   1.085   1_455  S
C1838      C1841   1.444       .  S
C1841      N1843   1.157       .  T
C1842      N1844   1.157       .  T
C1845      C1846   1.405       .  A
C1845      C1850   1.407       .  A
C1846      C1847   1.399       .  A
C1846      H1851   1.085       .  S
C1847      C1848   1.410       .  A
C1847      C1854   1.445       .  S
C1848      C1849   1.409       .  A
C1849      C1850   1.405       .  A
C1849      H1852   1.085       .  S
C1850      C1853   1.443       .  S
C1853      N1855   1.157       .  T
C1854      N1856   1.157       .  T
O1857     Cr1875   1.959       .  S
O1857      C1865   1.261       .  A
O1858     Cr1875   2.013       .  S
O1858      C1859   1.271       .  A
C1859      O1860   1.261       .  A
C1859      C2737   1.459       .  S
O1860     Cr1876   1.966       .  S
O1861     Cr1876   2.022       .  S
O1861      C1862   1.262       .  A
C1862      O1863   1.257       .  A
C1862      C2764   1.485       .  S
O1863     Cr1877   1.979       .  S
O1864     Cr1877   2.025       .  S
O1864      C1865   1.273       .  A
C1865      C2725   1.493       .  S
O1866     Cr1875   2.020       .  S
O1866      C1874   1.266       .  A
O1867     Cr1875   2.004       .  S
O1867      C1868   1.265       .  A
C1868      O1869   1.260       .  A
C1868      C2773   1.471       .  S
O1869     Cr1876   1.988       .  S
O1870     Cr1876   1.931       .  S
O1870      C1871   1.249       .  A
C1871      O1872   1.272       .  A
C1871      C2752   1.460       .  S
O1872     Cr1877   2.040       .  S
O1873     Cr1877   1.982       .  S
O1873      C1874   1.259       .  A
C1874      C2713   1.492       .  S
Cr1875     O1878   1.765       .  S
Cr1876     O1878   1.762       .  S
Cr1877     O1878   1.768       .  S
O1879     Cr1897   2.026       .  S
O1879      C1887   1.274       .  A
O1880     Cr1897   1.958       .  S
O1880      C1881   1.254       .  A
C1881      O1882   1.267       .  A
C1881      C2701   1.485       .  S
O1882     Cr1898   2.031       .  S
O1883     Cr1898   2.002       .  S
O1883      C1884   1.263       .  A
C1884      O1885   1.263       .  A
C1884      C2668   1.485       .  S
O1885     Cr1899   1.998       .  S
O1886     Cr1899   1.976       .  S
O1886      C1887   1.266       .  A
C1887      C2728   1.495       .  S
O1888     Cr1897   1.997       .  S
O1888      C1896   1.259       .  A
O1889     Cr1897   2.032       .  S
O1889      C1890   1.270       .  A
C1890      O1891   1.255       .  A
C1890      C2680   1.478       .  S
O1891     Cr1898   1.961       .  S
O1892     Cr1898   2.006       .  S
O1892      C1893   1.271       .  A
C1893      O1894   1.264       .  A
C1893      C2689   1.470       .  S
O1894     Cr1899   1.980       .  S
O1895     Cr1899   1.996       .  S
O1895      C1896   1.261       .  A
C1896      C2656   1.480       .  S
Cr1897     O1900   1.766       .  S
Cr1898     O1900   1.774       .  S
Cr1899     O1900   1.767       .  S
O1901     Cr1919   1.986       .  S
O1901      C1909   1.266       .  A
O1902     Cr1919   1.997       .  S
O1902      C1903   1.263       .  A
C1903      O1904   1.260       .  A
C1903      C2692   1.465       .  S
O1904     Cr1920   1.986       .  S
O1905     Cr1920   1.997       .  S
O1905      C1906   1.259       .  A
C1906      O1907   1.260       .  A
C1906      C2776   1.479       .  S
O1907     Cr1921   1.987       .  S
O1908     Cr1921   2.026       .  S
O1908      C1909   1.273       .  A
C1909      C2641   1.505       .  S
O1910     Cr1919   1.997       .  S
O1910      C1918   1.261       .  A
O1911     Cr1919   1.995       .  S
O1911      C1912   1.263       .  A
C1912      O1913   1.262       .  A
C1912      C2761   1.471       .  S
O1913     Cr1920   1.990       .  S
O1914     Cr1920   1.954       .  S
O1914      C1915   1.257       .  A
C1915      O1916   1.272       .  A
C1915      C2704   1.475       .  S
O1916     Cr1921   2.036       .  S
O1917     Cr1921   1.997       .  S
O1917      C1918   1.261       .  A
C1918      C2629   1.485       .  S
Cr1919     O1922   1.773       .  S
Cr1920     O1922   1.776       .  S
Cr1921     O1922   1.775       .  S
O1923     Cr1941   1.973       .  S
O1923      C1931   1.276       .  A
O1924     Cr1941   1.966       .  S
O1924      C1925   1.246       .  A
C1925      O1926   1.247       .  A
C1925      C2749   1.460       .  S
O1926     Cr1942   1.985       .  S
O1927     Cr1942   1.995       .  S
O1927      C1928   1.261       .  A
C1928      O1929   1.258       .  A
C1928      C2677   1.478       .  S
O1929     Cr1943   1.969       .  S
O1930     Cr1943   2.059       .  S
O1930      C1931   1.291       .  A
C1931      C2644   1.502       .  S
O1932     Cr1941   1.977       .  S
O1932      C1940   1.244       .  A
O1933     Cr1941   1.991       .  S
O1933      C1934   1.276       .  A
C1934      O1935   1.283       .  A
C1934      C2665   1.477       .  S
O1935     Cr1942   2.030       .  S
O1936     Cr1942   1.940       .  S
O1936      C1937   1.254       .  A
C1937      O1938   1.267       .  A
C1937      C2740   1.482       .  S
O1938     Cr1943   2.007       .  S
O1939     Cr1943   1.992       .  S
O1939      C1940   1.246       .  A
C1940      C2617   1.476       .  S
Cr1941     O1944   1.771       .  S
Cr1942     O1944   1.772       .  S
Cr1943     O1944   1.768       .  S
O1945     Cr1963   2.043       .  S
O1945      C1953   1.280       .  A
O1946     Cr1963   1.980       .  S
O1946      C1947   1.259       .  A
C1947      O1948   1.263   1_554  A
C1947      C2593   1.483   1_554  S
O1948     Cr1964   2.010   1_556  S
O1949     Cr1964   1.989   1_556  S
O1949      C1950   1.261   1_556  A
C1950      O1951   1.262       .  A
C1950      C2572   1.475   1_554  S
O1951     Cr1965   1.995       .  S
O1952     Cr1965   1.973       .  S
O1952      C1953   1.266       .  A
C1953      C2560   1.500       .  S
O1954     Cr1963   2.006       .  S
O1954      C1962   1.259       .  A
O1955     Cr1963   2.041       .  S
O1955      C1956   1.272       .  A
C1956      O1957   1.253       .  A
C1956      C2584   1.478       .  S
O1957     Cr1964   1.945       .  S
O1958     Cr1964   1.996       .  S
O1958      C1959   1.266       .  A
C1959      O1960   1.265       .  A
C1959      C2608   1.467       .  S
O1960     Cr1965   1.989       .  S
O1961     Cr1965   1.990       .  S
O1961      C1962   1.257       .  A
C1962      C2545   1.480       .  S
Cr1963     O1966   1.772       .  S
Cr1964     O1966   1.770       .  S
Cr1965     O1966   1.772       .  S
O1967     Cr1985   1.975       .  S
O1967      C1975   1.266       .  A
O1968     Cr1985   2.018       .  S
O1968      C1969   1.270       .  A
C1969      O1970   1.262   1_554  A
C1969      C2533   1.469   1_554  S
O1970     Cr1986   1.979   1_556  S
O1971     Cr1986   2.004   1_556  S
O1971      C1972   1.259   1_556  A
C1972      O1973   1.250       .  A
C1972      C2509   1.467   1_554  S
O1973     Cr1987   1.953       .  S
O1974     Cr1987   2.040       .  S
O1974      C1975   1.278       .  A
C1975      C2557   1.504       .  S
O1976     Cr1985   2.017       .  S
O1976      C1984   1.263       .  A
O1977     Cr1985   2.005       .  S
O1977      C1978   1.267       .  A
C1978      O1979   1.259       .  A
C1978      C2497   1.479       .  S
O1979     Cr1986   1.982       .  S
O1980     Cr1986   1.954       .  S
O1980      C1981   1.257       .  A
C1981      O1982   1.276       .  A
C1981      C2524   1.499       .  S
O1982     Cr1987   2.047       .  S
O1983     Cr1987   1.973       .  S
O1983      C1984   1.252       .  A
C1984      C2488   1.488       .  S
Cr1985     O1988   1.771       .  S
Cr1986     O1988   1.771       .  S
Cr1987     O1988   1.763       .  S
O1989     Cr2007   2.019       .  S
O1989      C1997   1.270       .  A
O1990     Cr2007   1.970       .  S
O1990      C1991   1.256       .  A
C1991      O1992   1.261   1_556  A
C1991      C2605   1.476   1_556  S
O1992     Cr2008   2.007   1_554  S
O1993     Cr2008   1.967   1_554  S
O1993      C1994   1.260   1_554  A
C1994      O1995   1.269       .  A
C1994      C2500   1.456   1_556  S
O1995     Cr2009   1.995       .  S
O1996     Cr2009   1.995       .  S
O1996      C1997   1.266       .  A
C1997      C2473   1.507       .  S
O1998     Cr2007   1.966       .  S
O1998      C2006   1.256       .  A
O1999     Cr2007   2.021       .  S
O1999      C2000   1.269       .  A
C2000      O2001   1.254       .  A
C2000      C2512   1.455       .  S
O2001     Cr2008   1.949       .  S
O2002     Cr2008   1.988       .  S
O2002      C2003   1.259       .  A
C2003      O2004   1.265       .  A
C2003      C2596   1.478       .  S
O2004     Cr2009   2.011       .  S
O2005     Cr2009   2.004       .  S
O2005      C2006   1.264       .  A
C2006      C2620   1.482       .  S
Cr2007     O2010   1.764       .  S
Cr2008     O2010   1.773       .  S
Cr2009     O2010   1.766       .  S
O2011     Cr2029   2.023       .  S
O2011      C2019   1.274       .  A
O2012     Cr2029   1.978       .  S
O2012      C2013   1.257       .  A
C2013      O2014   1.262       .  A
C2013      C2521   1.483   1_556  S
O2014     Cr2030   2.013       .  S
O2015     Cr2030   2.003       .  S
O2015      C2016   1.267       .  A
C2016      O2017   1.264       .  A
C2016      C2581   1.489       .  S
O2017     Cr2031   1.987       .  S
O2018     Cr2031   1.992       .  S
O2018      C2019   1.268       .  A
C2019      C2476   1.506       .  S
O2020     Cr2029   1.992       .  S
O2020      C2028   1.257       .  A
O2021     Cr2029   2.018       .  S
O2021      C2022   1.269       .  A
C2022      O2023   1.257       .  A
C2022      C2569   1.474       .  S
O2023     Cr2030   1.957       .  S
O2024     Cr2030   1.989       .  S
O2024      C2025   1.263       .  A
C2025      O2026   1.271       .  A
C2025      C2536   1.480       .  S
O2026     Cr2031   2.014       .  S
O2027     Cr2031   2.008       .  S
O2027      C2028   1.261       .  A
C2028      C2632   1.494       .  S
Cr2029     O2032   1.772       .  S
Cr2030     O2032   1.777       .  S
Cr2031     O2032   1.770       .  S
O2033     Cr2051   1.976       .  S
O2033      C2041   1.264       .  A
O2034     Cr2051   1.986       .  S
O2034      C2035   1.263       .  A
C2035      O2036   1.264       .  A
C2035      C2461   1.489       .  S
O2036     Cr2052   1.995       .  S
O2037     Cr2052   1.989       .  S
O2037      C2038   1.255       .  A
C2038      O2039   1.255       .  A
C2038      C2425   1.474   1_655  S
O2039     Cr2053   1.972       .  S
O2040     Cr2053   2.030       .  S
O2040      C2041   1.274       .  A
C2041      C2413   1.508       .  S
O2042     Cr2051   2.005       .  S
O2042      C2050   1.262       .  A
O2043     Cr2051   2.017       .  S
O2043      C2044   1.270       .  A
C2044      O2045   1.259       .  A
C2044      C2437   1.485       .  S
O2045     Cr2052   1.968       .  S
O2046     Cr2052   1.950       .  S
O2046      C2047   1.257       .  A
C2047      O2048   1.273       .  A
C2047      C2452   1.475       .  S
O2048     Cr2053   2.034       .  S
O2049     Cr2053   1.988       .  S
O2049      C2050   1.258       .  A
C2050      C2716   1.504       .  S
Cr2051     O2054   1.773       .  S
Cr2052     O2054   1.779       .  S
Cr2053     O2054   1.777       .  S
O2055     Cr2073   2.035       .  S
O2055      C2063   1.276       .  A
O2056     Cr2073   1.954       .  S
O2056      C2057   1.252       .  A
C2057      O2058   1.265       .  A
C2057      C2449   1.495       .  S
O2058     Cr2074   2.033       .  S
O2059     Cr2074   2.011       .  S
O2059      C2060   1.271       .  A
C2060      O2061   1.262       .  A
C2060      C2389   1.497       .  S
O2061     Cr2075   1.986       .  S
O2062     Cr2075   1.966       .  S
O2062      C2063   1.264       .  A
C2063      C2377   1.501       .  S
O2064     Cr2073   1.977       .  S
O2064      C2072   1.254       .  A
O2065     Cr2073   2.037       .  S
O2065      C2066   1.274       .  A
C2066      O2067   1.256       .  A
C2066      C2401   1.488       .  S
O2067     Cr2074   1.956       .  S
O2068     Cr2074   1.983       .  S
O2068      C2069   1.266       .  A
C2069      O2070   1.268       .  A
C2069      C2464   1.471       .  S
O2070     Cr2075   2.004       .  S
O2071     Cr2075   1.998       .  S
O2071      C2072   1.258       .  A
C2072      C2365   1.485       .  S
Cr2073     O2076   1.765       .  S
Cr2074     O2076   1.776       .  S
Cr2075     O2076   1.769       .  S
O2077     Cr2095   1.972       .  S
O2077      C2085   1.266       .  A
O2078     Cr2095   1.995       .  S
O2078      C2079   1.264       .  A
C2079      O2080   1.258       .  A
C2079      C2353   1.461       .  S
O2080     Cr2096   1.979       .  S
O2081     Cr2096   2.001       .  S
O2081      C2082   1.260       .  A
C2082      O2083   1.260       .  A
C2082      C2440   1.470       .  S
O2083     Cr2097   1.972       .  S
O2084     Cr2097   2.022       .  S
O2084      C2085   1.273       .  A
C2085      C2380   1.489       .  S
O2086     Cr2095   1.983       .  S
O2086      C2094   1.259       .  A
O2087     Cr2095   1.991       .  S
O2087      C2088   1.262       .  A
C2088      O2089   1.263       .  A
C2088      C2428   1.469       .  S
O2089     Cr2096   1.987       .  S
O2090     Cr2096   1.952       .  S
O2090      C2091   1.253       .  A
C2091      O2092   1.269       .  A
C2091      C2341   1.465       .  S
O2092     Cr2097   2.022       .  S
O2093     Cr2097   2.000       .  S
O2093      C2094   1.261       .  A
C2094      C2329   1.492       .  S
Cr2095     O2098   1.766       .  S
Cr2096     O2098   1.774       .  S
Cr2097     O2098   1.768       .  S
O2099     Cr2117   2.049       .  S
O2099      C2107   1.287       .  A
O2100     Cr2117   1.975       .  S
O2100      C2101   1.258       .  A
C2101      O2102   1.256       .  A
C2101      C2344   1.472       .  S
O2102     Cr2118   1.977       .  S
O2103     Cr2118   2.003       .  S
O2103      C2104   1.256       .  A
C2104      O2105   1.252       .  A
C2104      C2404   1.481       .  S
O2105     Cr2119   1.993       .  S
O2106     Cr2119   1.979       .  S
O2106      C2107   1.275       .  A
C2107      C2416   1.510       .  S
O2108     Cr2117   1.997       .  S
O2108      C2116   1.249       .  A
O2109     Cr2117   2.008       .  S
O2109      C2110   1.266       .  A
C2110      O2111   1.258       .  A
C2110      C2392   1.473       .  S
O2111     Cr2118   1.961       .  S
O2112     Cr2118   1.999       .  S
O2112      C2113   1.271       .  A
C2113      O2114   1.274       .  A
C2113      C2356   1.480       .  S
O2114     Cr2119   1.996       .  S
O2115     Cr2119   1.980       .  S
O2115      C2116   1.249       .  A
C2116      C2653   1.493       .  S
Cr2117     O2120   1.780       .  S
Cr2118     O2120   1.774       .  S
Cr2119     O2120   1.774       .  S
O2121     Cr2139   2.025       .  S
O2121      C2129   1.272       .  A
O2122     Cr2139   1.970       .  S
O2122      C2123   1.255       .  A
C2123      O2124   1.260       .  A
C2123      C2305   1.472       .  S
O2124     Cr2140   1.999       .  S
O2125     Cr2140   1.991       .  S
O2125      C2126   1.265       .  A
C2126      O2127   1.266       .  A
C2126      C2284   1.475       .  S
O2127     Cr2141   1.999       .  S
O2128     Cr2141   1.986       .  S
O2128      C2129   1.266       .  A
C2129      C2269   1.503       .  S
O2130     Cr2139   1.974       .  S
O2130      C2138   1.256       .  A
O2131     Cr2139   2.031       .  S
O2131      C2132   1.272       .  A
C2132      O2133   1.258       .  A
C2132      C2293   1.488       .  S
O2133     Cr2140   1.963       .  S
O2134     Cr2140   1.979       .  S
O2134      C2135   1.261       .  A
C2135      O2136   1.266       .  A
C2135      C2317   1.472       .  S
O2136     Cr2141   2.007       .  S
O2137     Cr2141   2.001       .  S
O2137      C2138   1.262       .  A
C2138      C2368   1.487       .  S
Cr2139     O2142   1.769       .  S
Cr2140     O2142   1.770       .  S
Cr2141     O2142   1.767       .  S
O2143     Cr2161   2.015       .  S
O2143      C2151   1.271       .  A
O2144     Cr2161   1.981       .  S
O2144      C2145   1.260       .  A
C2145      O2146   1.263       .  A
C2145      C2245   1.488       .  S
O2146     Cr2162   2.018       .  S
O2147     Cr2162   2.002       .  S
O2147      C2148   1.266       .  A
C2148      O2149   1.261       .  A
C2148      C2296   1.477       .  S
O2149     Cr2163   1.992       .  S
O2150     Cr2163   1.995       .  S
O2150      C2151   1.268       .  A
C2151      C2233   1.501       .  S
O2152     Cr2161   1.994       .  S
O2152      C2160   1.259       .  A
O2153     Cr2161   2.015       .  S
O2153      C2154   1.268       .  A
C2154      O2155   1.257       .  A
C2154      C2281   1.472       .  S
O2155     Cr2162   1.959       .  S
O2156     Cr2162   1.995       .  S
O2156      C2157   1.264       .  A
C2157      O2158   1.267       .  A
C2157      C2257   1.476       .  S
O2158     Cr2163   2.004       .  S
O2159     Cr2163   1.993       .  S
O2159      C2160   1.260       .  A
C2160      C2485   1.482       .  S
Cr2161     O2164   1.778       .  S
Cr2162     O2164   1.774       .  S
Cr2163     O2164   1.772       .  S
O2165     Cr2183   1.960       .  S
O2165      C2173   1.265       .  A
O2166     Cr2183   2.006       .  S
O2166      C2167   1.262       .  A
C2167      O2168   1.259       .  A
C2167      C2260   1.474       .  S
O2168     Cr2184   1.990       .  S
O2169     Cr2184   2.015       .  S
O2169      C2170   1.263       .  A
C2170      O2171   1.255       .  A
C2170      C2209   1.481       .  S
O2171     Cr2185   1.953       .  S
O2172     Cr2185   2.060       .  S
O2172      C2173   1.284       .  A
C2173      C2272   1.509       .  S
O2174     Cr2183   1.998       .  S
O2174      C2182   1.258       .  A
O2175     Cr2183   1.981       .  S
O2175      C2176   1.264       .  A
C2176      O2177   1.271       .  A
C2176      C2221   1.464       .  S
O2177     Cr2184   2.008       .  S
O2178     Cr2184   1.943       .  S
O2178      C2179   1.255       .  A
C2179      O2180   1.277       .  A
C2179      C2248   1.500       .  S
O2180     Cr2185   2.052       .  S
O2181     Cr2185   1.993       .  S
O2181      C2182   1.254       .  A
C2182      C2332   1.481       .  S
Cr2183     O2186   1.770       .  S
Cr2184     O2186   1.770       .  S
Cr2185     O2186   1.769       .  S
O2187     Cr2205   2.033       .  S
O2187      C2195   1.279       .  A
O2188     Cr2205   1.977       .  S
O2188      C2189   1.260       .  A
C2189      O2190   1.258       .  A
C2189      C2320   1.472       .  S
O2190     Cr2206   1.986       .  S
O2191     Cr2206   1.988       .  S
O2191      C2192   1.255       .  A
C2192      O2193   1.257       .  A
C2192      C2224   1.471       .  S
O2193     Cr2207   1.990       .  S
O2194     Cr2207   1.981       .  S
O2194      C2195   1.269       .  A
C2195      C2236   1.502       .  S
O2196     Cr2205   2.007       .  S
O2196      C2204   1.257       .  A
O2197     Cr2205   2.014       .  S
O2197      C2198   1.267       .  A
C2198      O2199   1.256       .  A
C2198      C2212   1.470       .  S
O2199     Cr2206   1.955       .  S
O2200     Cr2206   1.997       .  S
O2200      C2201   1.269       .  A
C2201      O2202   1.269       .  A
C2201      C2308   1.472       .  S
O2202     Cr2207   1.994       .  S
O2203     Cr2207   1.989       .  S
O2203      C2204   1.255       .  A
C2204      C2548   1.493       .  S
Cr2205     O2208   1.778       .  S
Cr2206     O2208   1.777       .  S
Cr2207     O2208   1.775       .  S
C2209      C2214   1.413       .  A
C2210      C2211   1.389       .  A
C2211      C2212   1.410       .  A
C2211      C2218   1.446       .  S
C2212      C2213   1.405       .  A
C2213      H2216   1.084       .  S
C2214      C2217   1.442       .  S
C2217      N2219   1.157       .  T
C2218      N2220   1.157       .  T
C2221      C2222   1.405       .  A
C2221      C2226   1.405       .  A
C2222      C2223   1.403       .  A
C2222      H2227   1.083       .  S
C2223      C2224   1.408       .  A
C2223      C2230   1.443       .  S
C2224      C2225   1.405       .  A
C2225      C2226   1.395       .  A
C2225      H2228   1.085       .  S
C2226      C2229   1.445       .  S
C2229      N2231   1.157       .  T
C2230      N2232   1.157       .  T
C2233      C2234   1.408       .  A
C2233      C2238   1.416       .  A
C2234      C2235   1.405       .  A
C2234      H2239   1.085       .  S
C2235      C2236   1.417       .  A
C2235      C2242   1.444       .  S
C2236      C2237   1.409       .  A
C2237      C2238   1.409       .  A
C2237      H2240   1.084       .  S
C2238      C2241   1.443       .  S
C2241      N2243   1.157       .  T
C2242      N2244   1.157       .  T
C2245      C2246   1.410       .  A
C2245      C2250   1.406       .  A
C2246      C2247   1.414       .  A
C2246      H2251   1.084       .  S
C2247      C2248   1.415       .  A
C2247      C2254   1.443       .  S
C2248      C2249   1.412       .  A
C2249      C2250   1.396       .  A
C2249      H2252   1.083       .  S
C2250      C2253   1.443       .  S
C2253      N2255   1.156       .  T
C2254      N2256   1.157       .  T
C2257      C2258   1.406       .  A
C2257      C2262   1.408       .  A
C2258      C2259   1.405       .  A
C2258      H2263   1.082       .  S
C2259      C3188   1.407       .  A
C2259      C2266   1.444       .  S
C2260      C3187   1.408   1_545  A
C2260      C2261   1.405       .  A
C2261      C3190   1.400   1_545  A
C2261      H2264   1.085       .  S
C2262      C3189   1.403       .  A
C2262      C2265   1.444       .  S
C2265      N2267   1.157       .  T
C2266      N2268   1.157       .  T
C2269      C3198   1.412       .  A
C2270      C3197   1.410   1_545  A
C2270      H2275   1.084       .  S
C2271      C2272   1.417       .  A
C2272      C3201   1.410   1_545  A
C2273      C3200   1.407       .  A
C2273      C2274   1.405       .  A
C2273      H2276   1.085       .  S
C2274      C2277   1.444       .  S
C2277      N2279   1.157       .  T
C2278      N2280   1.157       .  T
C2281      C2282   1.408       .  A
C2281      C2286   1.408       .  A
C2282      H2287   1.083       .  S
C2283      C2284   1.406   1_455  A
C2283      C2290   1.443       .  S
C2285      C2286   1.396       .  A
C2285      H2288   1.083       .  S
C2286      C2289   1.445       .  S
C2289      N2291   1.157       .  T
C2290      N2292   1.157       .  T
C2293      C2294   1.410       .  A
C2293      C2298   1.412       .  A
C2294      C2295   1.402       .  A
C2294      H2299   1.084       .  S
C2295      C2296   1.405       .  A
C2295      C2302   1.443       .  S
C2296      C2297   1.408       .  A
C2297      C2298   1.403       .  A
C2297      H2300   1.085       .  S
C2298      C2301   1.444       .  S
C2301      N2303   1.158       .  T
C2302      N2304   1.157       .  T
C2305      C2306   1.406       .  A
C2305      C3238   1.410       .  A
C2306      C3235   1.400       .  A
C2306      H2311   1.085       .  S
C2307      C3234   1.403   1_545  A
C2307      C2308   1.408       .  A
C2307      C2314   1.442       .  S
C2308      C2309   1.404       .  A
C2309      C2310   1.396       .  A
C2309      H2312   1.085       .  S
C2310      C3233   1.410   1_545  A
C2310      C2313   1.444       .  S
C2313      N2315   1.157       .  T
C2314      N2316   1.157       .  T
C2317      C2318   1.401       .  A
C2317      C2322   1.411       .  A
C2318      C2319   1.390       .  A
C2318      H2323   1.084       .  S
C2319      C2320   1.409       .  A
C2319      C2326   1.446       .  S
C2320      C2321   1.407       .  A
C2321      C2322   1.410       .  A
C2321      H2324   1.084       .  S
C2322      C2325   1.443       .  S
C2325      N2327   1.157       .  T
C2326      N2328   1.157       .  T
C2329      C2330   1.407       .  A
C2329      C2334   1.416       .  A
C2330      C2331   1.394       .  A
C2330      H2335   1.085       .  S
C2331      C2332   1.410       .  A
C2331      C2338   1.446       .  S
C2332      C2333   1.406       .  A
C2333      C2334   1.410       .  A
C2333      H2336   1.084       .  S
C2334      C2337   1.443       .  S
C2337      N2339   1.157       .  T
C2338      N2340   1.157       .  T
C2341      C2342   1.397       .  A
C2341      C2346   1.412       .  A
C2342      C2343   1.395       .  A
C2342      H2347   1.086       .  S
C2343      C2344   1.414       .  A
C2343      C2350   1.445       .  S
C2344      C2345   1.403       .  A
C2345      C2346   1.403       .  A
C2345      H2348   1.085       .  S
C2346      C2349   1.444       .  S
C2349      N2351   1.157       .  T
C2350      N2352   1.157       .  T
C2353      C3282   1.392   1_545  A
C2353      C2358   1.409       .  A
C2354      C3281   1.391       .  A
C2354      C2355   1.390       .  A
C2354      H2359   1.087       .  S
C2355      C2356   1.421       .  A
C2355      C2362   1.444       .  S
C2356      C2357   1.406       .  A
C2357      C3286   1.405       .  A
C2357      H2360   1.084       .  S
C2358      C3285   1.406   1_545  A
C2358      C2361   1.443       .  S
C2361      N2363   1.157       .  T
C2362      N2364   1.157       .  T
C2365      C2366   1.406       .  A
C2365      C2370   1.412       .  A
C2366      C2367   1.401       .  A
C2366      H2371   1.085       .  S
C2367      C2368   1.415       .  A
C2367      C2374   1.445       .  S
C2368      C2369   1.407       .  A
C2369      C2370   1.400       .  A
C2369      H2372   1.084       .  S
C2370      C2373   1.444       .  S
C2373      N2375   1.157       .  T
C2374      N2376   1.158       .  T
C2377      C2378   1.408       .  A
C2377      C3310   1.418       .  A
C2378      C2379   1.401       .  A
C2378      H2383   1.085       .  S
C2379      C3308   1.416       .  A
C2379      C2386   1.445       .  S
C2380      C3307   1.413   1_545  A
C2380      C2381   1.407       .  A
C2381      C2382   1.405       .  A
C2381      H2384   1.085       .  S
C2382      C3305   1.417   1_545  A
C2382      C2385   1.444       .  S
C2385      N2387   1.157       .  T
C2386      N2388   1.157       .  T
C2389      C2390   1.408       .  A
C2389      C2394   1.427       .  A
C2390      C2391   1.412       .  A
C2390      H2395   1.084       .  S
C2391      C2392   1.412       .  A
C2391      C2398   1.443       .  S
C2392      C2393   1.392       .  A
C2393      C2394   1.393       .  A
C2393      H2396   1.086       .  S
C2394      C2397   1.446       .  S
C2397      N2399   1.158       .  T
C2398      N2400   1.157       .  T
C2401      C2402   1.411       .  A
C2401      C2406   1.410       .  A
C2402      H2407   1.085       .  S
C2403      C2404   1.408       .  A
C2403      C2410   1.445       .  S
C2404      C2405   1.408       .  A
C2405      H2408   1.085       .  S
C2406      C2409   1.444       .  S
C2409      N2411   1.157       .  T
C2410      N2412   1.157       .  T
C2413      C2414   1.409       .  A
C2414      C2415   1.403       .  A
C2414      H2419   1.084       .  S
C2415      C2422   1.445       .  S
C2416      C2417   1.411       .  A
C2417      C2418   1.414       .  A
C2417      H2420   1.084       .  S
C2418      C2421   1.443       .  S
C2421      N2423   1.157       .  T
C2422      N2424   1.157       .  T
C2426      C2427   1.404       .  A
C2427      C2428   1.406       .  A
C2427      C2434   1.443       .  S
C2428      C2429   1.403       .  A
C2429      C2430   1.389       .  A
C2429      H2432   1.081       .  S
C2433      N2435   1.157       .  T
C2434      N2436   1.157       .  T
C2437      C2438   1.409       .  A
C2437      C2442   1.422       .  A
C2438      C2439   1.413       .  A
C2438      H2443   1.084       .  S
C2439      C2440   1.412       .  A
C2439      C2446   1.442       .  S
C2440      C2441   1.392       .  A
C2441      C2442   1.385       .  A
C2441      H2444   1.087       .  S
C2442      C2445   1.446       .  S
C2445      N2447   1.157       .  T
C2446      N2448   1.157       .  T
C2449      C3378   1.407       .  A
C2449      C3382   1.417       .  A
C2450      C3377   1.406   1_545  A
C2450      C2451   1.389       .  A
C2450      H3383   1.085       .  S
C2451      C2452   1.409       .  A
C2451      C2458   1.446       .  S
C2452      C2453   1.406       .  A
C2453      C2454   1.412       .  A
C2453      H2456   1.084       .  S
C2454      C3377   1.415   1_545  A
C2454      C3385   1.442   1_545  S
H2455      C3378   1.085       .  S
C2457      C3382   1.442       .  S
C2457      N2459   1.157       .  T
C2458      N2460   1.157       .  T
C2461      C2462   1.411       .  A
C2461      C2466   1.422       .  A
C2462      C2463   1.412       .  A
C2462      H2467   1.084       .  S
C2463      C2464   1.410       .  A
C2463      C2470   1.443       .  S
C2464      C2465   1.395       .  A
C2465      C2466   1.384       .  A
C2465      H2468   1.084       .  S
C2466      C2469   1.448       .  S
C2469      N2471   1.158       .  T
C2470      N2472   1.157       .  T
C2473      C2474   1.409       .  A
C2474      H2479   1.084       .  S
C2475      C2476   1.417       .  A
C2475      C2482   1.444       .  S
C2476      C2477   1.410       .  A
C2477      C2478   1.409       .  A
C2477      H2480   1.084       .  S
C2478      C2481   1.444       .  S
C2481      N2483   1.157       .  T
C2485      C2486   1.403       .  A
C2485      C2490   1.411       .  A
C2486      C2487   1.400       .  A
C2486      H2491   1.085       .  S
C2487      C2488   1.414       .  A
C2487      C2494   1.445       .  S
C2488      C2489   1.409       .  A
C2489      C2490   1.407       .  A
C2489      H2492   1.085       .  S
C2490      C2493   1.443       .  S
C2493      N2495   1.157       .  T
C2494      N2496   1.157       .  T
C2497      C2498   1.406       .  A
C2497      C2502   1.422   1_554  A
C2498      H2503   1.084       .  S
C2499      C2500   1.409       .  A
C2499      C2506   1.443       .  S
C2501      C2502   1.386       .  A
C2501      H2504   1.086       .  S
C2502      C2505   1.447       .  S
C2505      N2507   1.158       .  T
C2506      N2508   1.157       .  T
C2509      C2510   1.404       .  A
C2509      C2514   1.414   1_556  A
C2510      C2511   1.403       .  A
C2510      H2515   1.084       .  S
C2511      C2512   1.409       .  A
C2511      C2518   1.444       .  S
C2512      C2513   1.395   1_556  A
C2513      C2514   1.389       .  A
C2513      H2516   1.086       .  S
C2514      C2517   1.446       .  S
C2517      N2519   1.157       .  T
C2518      N2520   1.157       .  T
C2521      C2522   1.407       .  A
C2521      C2526   1.406       .  A
C2522      C2523   1.409       .  A
C2522      H2527   1.084       .  S
C2523      C2524   1.415       .  A
C2523      C2530   1.441       .  S
C2524      C2525   1.412       .  A
C2525      C2526   1.398       .  A
C2525      H2528   1.081       .  S
C2526      C2529   1.445   1_554  S
C2529      N2531   1.157       .  T
C2530      N2532   1.157       .  T
C2533      C2534   1.406       .  A
C2533      C3466   1.403       .  A
C2534      C3463   1.405       .  A
C2534      H2539   1.085       .  S
C2535      C3462   1.408   1_545  A
C2535      C2536   1.409       .  A
C2535      C2542   1.443       .  S
C2536      C2537   1.407       .  A
C2537      C2538   1.400       .  A
C2537      H2540   1.083       .  S
C2538      C3461   1.406   1_545  A
C2538      C2541   1.444   1_556  S
C2541      N2543   1.157       .  T
C2542      N2544   1.157       .  T
C2545      C2546   1.398       .  A
C2545      C2550   1.412       .  A
C2546      C2547   1.397       .  A
C2546      H2551   1.086       .  S
C2547      C2548   1.416       .  A
C2547      C2554   1.443       .  S
C2548      C2549   1.409       .  A
C2549      C2550   1.413       .  A
C2549      H2552   1.084       .  S
C2550      C2553   1.443       .  S
C2553      N2555   1.157       .  T
C2554      N2556   1.156       .  T
C2557      C3486   1.407       .  A
C2557      C2562   1.418       .  A
C2558      C3485   1.407   1_545  A
C2558      C2559   1.406       .  A
C2558      H2563   1.085       .  S
C2559      C2560   1.417       .  A
C2559      C2566   1.444       .  S
C2560      C3489   1.406   1_545  A
C2561      C3488   1.408       .  A
C2561      C2562   1.412       .  A
C2561      H2564   1.084       .  S
C2562      C2565   1.443       .  S
C2565      N2567   1.157       .  T
C2566      N2568   1.157       .  T
C2569      C2570   1.408       .  A
C2569      C2574   1.406       .  A
C2570      C2571   1.402       .  A
C2570      H2575   1.084       .  S
C2571      C2572   1.407       .  A
C2571      C2578   1.444       .  S
C2572      C2573   1.407       .  A
C2573      C2574   1.397       .  A
C2573      H2576   1.085       .  S
C2574      C2577   1.443       .  S
C2577      N2579   1.157       .  T
C2578      N2580   1.157       .  T
C2581      C2586   1.416   1_556  A
C2582      C2583   1.389       .  A
C2582      H2587   1.085       .  S
C2583      C2584   1.411   1_556  A
C2583      C2590   1.447       .  S
C2584      C2585   1.407       .  A
C2585      H2588   1.084       .  S
C2586      C2589   1.442       .  S
C2589      N2591   1.157       .  T
C2590      N2592   1.157       .  T
C2593      C3522   1.408       .  A
C2593      C3526   1.409   1_545  A
C2594      C3521   1.409       .  A
C2594      C2595   1.408       .  A
C2594      H3527   1.084       .  S
C2595      C2596   1.409       .  A
C2595      C2602   1.443       .  S
C2596      C2597   1.405       .  A
C2597      C2598   1.400       .  A
C2597      H2600   1.085       .  S
C2598      C3521   1.411       .  A
C2598      C3529   1.444   1_556  S
H2599      C3522   1.084       .  S
C2601      C3526   1.444   1_554  S
C2601      N2603   1.157       .  T
C2602      N2604   1.157       .  T
C2605      C2606   1.408       .  A
C2605      C2610   1.410       .  A
C2606      C2607   1.403       .  A
C2606      H2611   1.084       .  S
C2607      C2608   1.407       .  A
C2607      C2614   1.444       .  S
C2608      C2609   1.402       .  A
C2609      C2610   1.395       .  A
C2609      H2612   1.084       .  S
C2610      C2613   1.446       .  S
C2613      N2615   1.157   1_554  T
C2614      N2616   1.157       .  T
C2617      C2618   1.403       .  A
C2617      C2622   1.410       .  A
C2618      C2619   1.396       .  A
C2618      H2623   1.085       .  S
C2619      C2620   1.415       .  A
C2619      C2626   1.446       .  S
C2620      C2621   1.406       .  A
C2621      C2622   1.402       .  A
C2621      H2624   1.085       .  S
C2622      C2625   1.443       .  S
C2625      N2627   1.157       .  T
C2626      N2628   1.158       .  T
C2629      C2630   1.405       .  A
C2629      C2634   1.412       .  A
C2630      C2631   1.409       .  A
C2630      H2635   1.085       .  S
C2631      C2632   1.416       .  A
C2631      C2638   1.443       .  S
C2632      C2633   1.406       .  A
C2633      C2634   1.403       .  A
C2633      H2636   1.085       .  S
C2634      C2637   1.444       .  S
C2637      N2639   1.157       .  T
C2638      N2640   1.157       .  T
C2641      C2642   1.411       .  A
C2641      C2646   1.418       .  A
C2642      C2643   1.409       .  A
C2642      H2647   1.084       .  S
C2643      C2644   1.415       .  A
C2643      C2650   1.443       .  S
C2644      C2645   1.409       .  A
C2645      C2646   1.406       .  A
C2645      H2648   1.085       .  S
C2646      C2649   1.444       .  S
C2649      N2651   1.157       .  T
C2650      N2652   1.157       .  T
C2653      C2654   1.405       .  A
C2653      C2658   1.419       .  A
C2654      C2655   1.394       .  A
C2654      H2659   1.085       .  S
C2655      C2656   1.410       .  A
C2655      C2662   1.446       .  S
C2656      C2657   1.405       .  A
C2657      C2658   1.411       .  A
C2657      H2660   1.084       .  S
C2658      C2661   1.443       .  S
C2661      N2663   1.157       .  T
C2662      N2664   1.157       .  T
C2665      C2666   1.398       .  A
C2665      C2670   1.412       .  A
C2666      H2671   1.085       .  S
C2667      C2668   1.416       .  A
C2667      C2674   1.444       .  S
C2668      C2669   1.406       .  A
C2669      H2672   1.084       .  S
C2670      C2673   1.441       .  S
C2673      N2675   1.157       .  T
C2674      N2676   1.157       .  T
C2677      C2678   1.403       .  A
C2677      C2682   1.409       .  A
C2678      C2679   1.398       .  A
C2678      H2683   1.086       .  S
C2679      C2680   1.410       .  A
C2679      C2686   1.441       .  S
C2680      C2681   1.408       .  A
C2681      C2682   1.406       .  A
C2681      H2684   1.085       .  S
C2682      C2685   1.443       .  S
C2685      N2687   1.157       .  T
C2686      N2688   1.156       .  T
C2689      C2690   1.403       .  A
C2689      C2694   1.409       .  A
C2690      C2691   1.396       .  A
C2690      H2695   1.085       .  S
C2691      C2692   1.406       .  A
C2691      C2698   1.443       .  S
C2692      C2693   1.404       .  A
C2693      C2694   1.402       .  A
C2693      H2696   1.085       .  S
C2694      C2697   1.443       .  S
C2697      N2699   1.157       .  T
C2698      N2700   1.157       .  T
C2701      C2702   1.409       .  A
C2701      C3634   1.417       .  A
C2702      C3631   1.413       .  A
C2702      H2707   1.084       .  S
C2703      C3630   1.414   1_545  A
C2703      C2704   1.411       .  A
C2703      C2710   1.442       .  S
C2704      C2705   1.396       .  A
C2705      C2706   1.390       .  A
C2705      H2708   1.086       .  S
C2706      C3629   1.419   1_545  A
C2706      C2709   1.447       .  S
C2709      N2711   1.157       .  T
C2710      N2712   1.157       .  T
C2713      C2714   1.406       .  A
C2713      C2718   1.412       .  A
C2714      C2715   1.408       .  A
C2714      H2719   1.085       .  S
C2715      C2716   1.420       .  A
C2715      C2722   1.444       .  S
C2716      C2717   1.411       .  A
C2717      C2718   1.405       .  A
C2717      H2720   1.084       .  S
C2718      C2721   1.444       .  S
C2721      N2723   1.157       .  T
C2722      N2724   1.157       .  T
C2725      C3654   1.409   1_545  A
C2726      C3653   1.410       .  A
C2726      H2731   1.085       .  S
C2727      C2728   1.414       .  A
C2728      C3657   1.408       .  A
C2729      C3656   1.409       .  A
C2729      C2730   1.406   1_565  A
C2729      H2732   1.085   1_565  S
C2730      C2733   1.444       .  S
C2733      N2735   1.157       .  T
C2734      N2736   1.157       .  T
C2737      C3666   1.392   1_545  A
C2737      C2742   1.409       .  A
C2738      C3665   1.391       .  A
C2738      C2739   1.389       .  A
C2738      H2743   1.086       .  S
C2739      C2740   1.424       .  A
C2739      C2746   1.446       .  S
C2740      C2741   1.405       .  A
C2741      C3670   1.403       .  A
C2741      H2744   1.084       .  S
C2742      C3669   1.403   1_545  A
C2742      C2745   1.443       .  S
C2745      N2747   1.157       .  T
C2746      N2748   1.157       .  T
C2749      C2750   1.395       .  A
C2749      C2754   1.412       .  A
C2750      C2751   1.379       .  A
C2750      H2755   1.087       .  S
C2751      C2752   1.413       .  A
C2751      C2758   1.448       .  S
C2752      C2753   1.404       .  A
C2753      C2754   1.407       .  A
C2753      H2756   1.084       .  S
C2754      C2757   1.443       .  S
C2757      N2759   1.157       .  T
C2758      N2760   1.157       .  T
C2761      C2762   1.403       .  A
C2761      C2766   1.407       .  A
C2762      H2767   1.085       .  S
C2763      C2764   1.411   1_455  A
C2763      C2770   1.445       .  S
C2765      C2766   1.405       .  A
C2765      H2768   1.085       .  S
C2766      C2769   1.443       .  S
C2769      N2771   1.157       .  T
C2770      N2772   1.157       .  T
C2773      C2774   1.404       .  A
C2773      C2778   1.407       .  A
C2774      C2775   1.399       .  A
C2774      H2779   1.085       .  S
C2775      C2776   1.410       .  A
C2775      C2782   1.444       .  S
C2776      C2777   1.408       .  A
C2777      C2778   1.404       .  A
C2777      H2780   1.085       .  S
C2778      C2781   1.443       .  S
C2781      N2783   1.157       .  T
C2782      N2784   1.157       .  T
O2785     Cr2803   1.968       .  S
O2785      C2793   1.262       .  A
O2786     Cr2803   2.012       .  S
O2786      C2787   1.270       .  A
C2787      O2788   1.260       .  A
C2787      C3665   1.457       .  S
O2788     Cr2804   1.964       .  S
O2789     Cr2804   2.010       .  S
O2789      C2790   1.259       .  A
C2790      O2791   1.255       .  A
C2790      C3692   1.479       .  S
O2791     Cr2805   1.977       .  S
O2792     Cr2805   2.030       .  S
O2792      C2793   1.274       .  A
C2793      C3653   1.501       .  S
O2794     Cr2803   2.021       .  S
O2794      C2802   1.266       .  A
O2795     Cr2803   2.010       .  S
O2795      C2796   1.267       .  A
C2796      O2797   1.259       .  A
C2796      C3701   1.473       .  S
O2797     Cr2804   1.984       .  S
O2798     Cr2804   1.936       .  S
O2798      C2799   1.251       .  A
C2799      O2800   1.274       .  A
C2799      C3680   1.463       .  S
O2800     Cr2805   2.043       .  S
O2801     Cr2805   1.982       .  S
O2801      C2802   1.258       .  A
C2802      C3641   1.494       .  S
Cr2803     O2806   1.766       .  S
Cr2804     O2806   1.765       .  S
Cr2805     O2806   1.769       .  S
O2807     Cr2825   2.020       .  S
O2807      C2815   1.272       .  A
O2808     Cr2825   1.953       .  S
O2808      C2809   1.251       .  A
C2809      O2810   1.268       .  A
C2809      C3629   1.487       .  S
O2810     Cr2826   2.041       .  S
O2811     Cr2826   2.000       .  S
O2811      C2812   1.264       .  A
C2812      O2813   1.264       .  A
C2812      C3596   1.483       .  S
O2813     Cr2827   2.001       .  S
O2814     Cr2827   1.984       .  S
O2814      C2815   1.267       .  A
C2815      C3656   1.493       .  S
O2816     Cr2825   1.991       .  S
O2816      C2824   1.260       .  A
O2817     Cr2825   2.038       .  S
O2817      C2818   1.271       .  A
C2818      O2819   1.254       .  A
C2818      C3608   1.482       .  S
O2819     Cr2826   1.961       .  S
O2820     Cr2826   2.005       .  S
O2820      C2821   1.270       .  A
C2821      O2822   1.264       .  A
C2821      C3617   1.470       .  S
O2822     Cr2827   1.982       .  S
O2823     Cr2827   2.000       .  S
O2823      C2824   1.263       .  A
C2824      C3584   1.478       .  S
Cr2825     O2828   1.762       .  S
Cr2826     O2828   1.773       .  S
Cr2827     O2828   1.766       .  S
O2829     Cr2847   1.986       .  S
O2829      C2837   1.266       .  A
O2830     Cr2847   1.995       .  S
O2830      C2831   1.264       .  A
C2831      O2832   1.261       .  A
C2831      C3620   1.463       .  S
O2832     Cr2848   1.985       .  S
O2833     Cr2848   2.001       .  S
O2833      C2834   1.259       .  A
C2834      O2835   1.260       .  A
C2834      C3704   1.483       .  S
O2835     Cr2849   1.988       .  S
O2836     Cr2849   2.024       .  S
O2836      C2837   1.273       .  A
C2837      C3569   1.505       .  S
O2838     Cr2847   1.994       .  S
O2838      C2846   1.261       .  A
O2839     Cr2847   2.002       .  S
O2839      C2840   1.264       .  A
C2840      O2841   1.260       .  A
C2840      C3689   1.473       .  S
O2841     Cr2848   1.987       .  S
O2842     Cr2848   1.953       .  S
O2842      C2843   1.255       .  A
C2843      O2844   1.273       .  A
C2843      C3632   1.471       .  S
O2844     Cr2849   2.038       .  S
O2845     Cr2849   1.994       .  S
O2845      C2846   1.261       .  A
C2846      C3557   1.483       .  S
Cr2847     O2850   1.771       .  S
Cr2848     O2850   1.773       .  S
Cr2849     O2850   1.775       .  S
O2851     Cr2869   1.970       .  S
O2851      C2859   1.277       .  A
O2852     Cr2869   1.968       .  S
O2852      C2853   1.246       .  A
C2853      O2854   1.248       .  A
C2853      C3677   1.468       .  S
O2854     Cr2870   1.988       .  S
O2855     Cr2870   1.996       .  S
O2855      C2856   1.261       .  A
C2856      O2857   1.258       .  A
C2856      C3605   1.481       .  S
O2857     Cr2871   1.975       .  S
O2858     Cr2871   2.058       .  S
O2858      C2859   1.292       .  A
C2859      C3572   1.499       .  S
O2860     Cr2869   1.973       .  S
O2860      C2868   1.243       .  A
O2861     Cr2869   1.989       .  S
O2861      C2862   1.276       .  A
C2862      O2863   1.283       .  A
C2862      C3593   1.476       .  S
O2863     Cr2870   2.030       .  S
O2864     Cr2870   1.946       .  S
O2864      C2865   1.255       .  A
C2865      O2866   1.267       .  A
C2865      C3668   1.483       .  S
O2866     Cr2871   2.006       .  S
O2867     Cr2871   1.999       .  S
O2867      C2868   1.247       .  A
C2868      C3545   1.478       .  S
Cr2869     O2872   1.770       .  S
Cr2870     O2872   1.771       .  S
Cr2871     O2872   1.768       .  S
O2873     Cr2891   2.047       .  S
O2873      C2881   1.280       .  A
O2874     Cr2891   1.979       .  S
O2874      C2875   1.259       .  A
C2875      O2876   1.263   1_554  A
C2875      C3521   1.486   1_554  S
O2876     Cr2892   2.015   1_556  S
O2877     Cr2892   1.983   1_556  S
O2877      C2878   1.260   1_556  A
C2878      O2879   1.263       .  A
C2878      C3500   1.468   1_554  S
O2879     Cr2893   1.993       .  S
O2880     Cr2893   1.975       .  S
O2880      C2881   1.266       .  A
C2881      C3488   1.505       .  S
O2882     Cr2891   2.000       .  S
O2882      C2890   1.259       .  A
O2883     Cr2891   2.045       .  S
O2883      C2884   1.273       .  A
C2884      O2885   1.250       .  A
C2884      C3512   1.475       .  S
O2885     Cr2892   1.942       .  S
O2886     Cr2892   1.996       .  S
O2886      C2887   1.265       .  A
C2887      O2888   1.265       .  A
C2887      C3536   1.470       .  S
O2888     Cr2893   1.995       .  S
O2889     Cr2893   1.991       .  S
O2889      C2890   1.258       .  A
C2890      C3473   1.478       .  S
Cr2891     O2894   1.771       .  S
Cr2892     O2894   1.768       .  S
Cr2893     O2894   1.767       .  S
O2895     Cr2913   1.976       .  S
O2895      C2903   1.267       .  A
O2896     Cr2913   2.019       .  S
O2896      C2897   1.271       .  A
C2897      O2898   1.266   1_554  A
C2897      C3461   1.477   1_554  S
O2898     Cr2914   1.989   1_556  S
O2899     Cr2914   2.004       .  S
O2899      C2900   1.259       .  A
C2900      O2901   1.250       .  A
C2900      C3437   1.466       .  S
O2901     Cr2915   1.947       .  S
O2902     Cr2915   2.039       .  S
O2902      C2903   1.278       .  A
C2903      C3485   1.501       .  S
O2904     Cr2913   2.016       .  S
O2904      C2912   1.262       .  A
O2905     Cr2913   2.013       .  S
O2905      C2906   1.268       .  A
C2906      O2907   1.257       .  A
C2906      C3425   1.481       .  S
O2907     Cr2914   1.977       .  S
O2908     Cr2914   1.964       .  S
O2908      C2909   1.258       .  A
C2909      O2910   1.274       .  A
C2909      C3452   1.502       .  S
O2910     Cr2915   2.047       .  S
O2911     Cr2915   1.969       .  S
O2911      C2912   1.251       .  A
C2912      C3416   1.479       .  S
Cr2913     O2916   1.773       .  S
Cr2914     O2916   1.770       .  S
Cr2915     O2916   1.762       .  S
O2917     Cr2935   2.010       .  S
O2917      C2925   1.268       .  A
O2918     Cr2935   1.977       .  S
O2918      C2919   1.258   1_556  A
C2919      O2920   1.262       .  A
C2919      C3533   1.478       .  S
O2920     Cr2936   2.009   1_554  S
O2921     Cr2936   1.975   1_554  S
O2921      C2922   1.261       .  A
C2922      O2923   1.267   1_554  A
C2922      C3428   1.461       .  S
O2923     Cr2937   1.993       .  S
O2924     Cr2937   1.994       .  S
O2924      C2925   1.265       .  A
C2925      C3401   1.501       .  S
O2926     Cr2935   1.969       .  S
O2926      C2934   1.257       .  A
O2927     Cr2935   2.011       .  S
O2927      C2928   1.266       .  A
C2928      O2929   1.256       .  A
C2928      C3440   1.452       .  S
O2929     Cr2936   1.953       .  S
O2930     Cr2936   1.993       .  S
O2930      C2931   1.261       .  A
C2931      O2932   1.265       .  A
C2931      C3524   1.478       .  S
O2932     Cr2937   2.005       .  S
O2933     Cr2937   2.007       .  S
O2933      C2934   1.264       .  A
C2934      C3548   1.484       .  S
Cr2935     O2938   1.766       .  S
Cr2936     O2938   1.773       .  S
Cr2937     O2938   1.768       .  S
O2939     Cr2957   2.020       .  S
O2939      C2947   1.274       .  A
O2940     Cr2957   1.979       .  S
O2940      C2941   1.259       .  A
C2941      O2942   1.264   1_556  A
C2941      C3449   1.486   1_556  S
O2942     Cr2958   2.017   1_554  S
O2943     Cr2958   2.012   1_554  S
O2943      C2944   1.268   1_554  A
C2944      O2945   1.263       .  A
C2944      C3509   1.491   1_556  S
O2945     Cr2959   1.984       .  S
O2946     Cr2959   1.986       .  S
O2946      C2947   1.267       .  A
C2947      C3404   1.499       .  S
O2948     Cr2957   1.991       .  S
O2948      C2956   1.256       .  A
O2949     Cr2957   2.009       .  S
O2949      C2950   1.267       .  A
C2950      O2951   1.257       .  A
C2950      C3497   1.472       .  S
O2951     Cr2958   1.961       .  S
O2952     Cr2958   1.989       .  S
O2952      C2953   1.264       .  A
C2953      O2954   1.269       .  A
C2953      C3464   1.472       .  S
O2954     Cr2959   2.002       .  S
O2955     Cr2959   2.003       .  S
O2955      C2956   1.259       .  A
C2956      C3560   1.489       .  S
Cr2957     O2960   1.771       .  S
Cr2958     O2960   1.776       .  S
Cr2959     O2960   1.770       .  S
O2961     Cr2979   1.978       .  S
O2961      C2969   1.265       .  A
O2962     Cr2979   1.982       .  S
O2962      C2963   1.264       .  A
C2963      O2964   1.265       .  A
C2963      C3389   1.482       .  S
O2964     Cr2980   1.990       .  S
O2965     Cr2980   1.991       .  S
O2965      C2966   1.254       .  A
C2966      O2967   1.252       .  A
C2966      C3353   1.470   1_655  S
O2967     Cr2981   1.966       .  S
O2968     Cr2981   2.035       .  S
O2968      C2969   1.275       .  A
C2969      C3341   1.513       .  S
O2970     Cr2979   2.008       .  S
O2970      C2978   1.263       .  A
O2971     Cr2979   2.027       .  S
O2971      C2972   1.273       .  A
C2972      O2973   1.256       .  A
C2972      C3365   1.489       .  S
O2973     Cr2980   1.966       .  S
O2974     Cr2980   1.947       .  S
O2974      C2975   1.257       .  A
C2975      O2976   1.276       .  A
C2975      C3380   1.480       .  S
O2976     Cr2981   2.046       .  S
O2977     Cr2981   1.984       .  S
O2977      C2978   1.257       .  A
C2978      C3644   1.504       .  S
Cr2979     O2982   1.770       .  S
Cr2980     O2982   1.779       .  S
Cr2981     O2982   1.774       .  S
O2983     Cr3001   2.026       .  S
O2983      C2991   1.273       .  A
O2984     Cr3001   1.951       .  S
O2984      C2985   1.251       .  A
C2985      O2986   1.264       .  A
C2985      C3377   1.489       .  S
O2986     Cr3002   2.031       .  S
O2987     Cr3002   2.011       .  S
O2987      C2988   1.271       .  A
C2988      O2989   1.264       .  A
C2988      C3317   1.497       .  S
O2989     Cr3003   1.990       .  S
O2990     Cr3003   1.962       .  S
O2990      C2991   1.262       .  A
C2991      C3305   1.492       .  S
O2992     Cr3001   1.971       .  S
O2992      C3000   1.254       .  A
O2993     Cr3001   2.031       .  S
O2993      C2994   1.272       .  A
C2994      O2995   1.257       .  A
C2994      C3329   1.484       .  S
O2995     Cr3002   1.958       .  S
O2996     Cr3002   1.980       .  S
O2996      C2997   1.266       .  A
C2997      O2998   1.265       .  A
C2997      C3392   1.463       .  S
O2998     Cr3003   1.995       .  S
O2999     Cr3003   2.002       .  S
O2999      C3000   1.260       .  A
C3000      C3293   1.487       .  S
Cr3001     O3004   1.760       .  S
Cr3002     O3004   1.774       .  S
Cr3003     O3004   1.767       .  S
O3005     Cr3023   1.973       .  S
O3005      C3013   1.265       .  A
O3006     Cr3023   1.996       .  S
O3006      C3007   1.263       .  A
C3007      O3008   1.258       .  A
C3007      C3281   1.460       .  S
O3008     Cr3024   1.977       .  S
O3009     Cr3024   1.997       .  S
O3009      C3010   1.259       .  A
C3010      O3011   1.260       .  A
C3010      C3368   1.472       .  S
O3011     Cr3025   1.976       .  S
O3012     Cr3025   2.031       .  S
O3012      C3013   1.275       .  A
C3013      C3308   1.497       .  S
O3014     Cr3023   1.986       .  S
O3014      C3022   1.259       .  A
O3015     Cr3023   1.992       .  S
O3015      C3016   1.263       .  A
C3016      O3017   1.262       .  A
C3016      C3356   1.467       .  S
O3017     Cr3024   1.987       .  S
O3018     Cr3024   1.953       .  S
O3018      C3019   1.254       .  A
C3019      O3020   1.271       .  A
C3019      C3269   1.469       .  S
O3020     Cr3025   2.030       .  S
O3021     Cr3025   2.003       .  S
O3021      C3022   1.261       .  A
C3022      C3257   1.496       .  S
Cr3023     O3026   1.768       .  S
Cr3024     O3026   1.776       .  S
Cr3025     O3026   1.771       .  S
O3027     Cr3045   2.046       .  S
O3027      C3035   1.286       .  A
O3028     Cr3045   1.980       .  S
O3028      C3029   1.259       .  A
C3029      O3030   1.257       .  A
C3029      C3272   1.479       .  S
O3030     Cr3046   1.980       .  S
O3031     Cr3046   2.005       .  S
O3031      C3032   1.257       .  A
C3032      O3033   1.253       .  A
C3032      C3332   1.485       .  S
O3033     Cr3047   1.993       .  S
O3034     Cr3047   1.976       .  S
O3034      C3035   1.275       .  A
C3035      C3344   1.504       .  S
O3036     Cr3045   1.995       .  S
O3036      C3044   1.248       .  A
O3037     Cr3045   2.005       .  S
O3037      C3038   1.266       .  A
C3038      O3039   1.258       .  A
C3038      C3320   1.472       .  S
O3039     Cr3046   1.965       .  S
O3040     Cr3046   1.997       .  S
O3040      C3041   1.271       .  A
C3041      O3042   1.274       .  A
C3041      C3284   1.481       .  S
O3042     Cr3047   1.997       .  S
O3043     Cr3047   1.978       .  S
O3043      C3044   1.248       .  A
C3044      C3581   1.491       .  S
Cr3045     O3048   1.780       .  S
Cr3046     O3048   1.774       .  S
Cr3047     O3048   1.775       .  S
O3049     Cr3067   2.026       .  S
O3049      C3057   1.273       .  A
O3050     Cr3067   1.971       .  S
O3050      C3051   1.256       .  A
C3051      O3052   1.261       .  A
C3051      C3233   1.478       .  S
O3052     Cr3068   2.004       .  S
O3053     Cr3068   1.990       .  S
O3053      C3054   1.265       .  A
C3054      O3055   1.265       .  A
C3054      C3212   1.475       .  S
O3055     Cr3069   1.999       .  S
O3056     Cr3069   1.981       .  S
O3056      C3057   1.265       .  A
C3057      C3197   1.502       .  S
O3058     Cr3067   1.975       .  S
O3058      C3066   1.255       .  A
O3059     Cr3067   2.026       .  S
O3059      C3060   1.271       .  A
C3060      O3061   1.258       .  A
C3060      C3221   1.485       .  S
O3061     Cr3068   1.960       .  S
O3062     Cr3068   1.978       .  S
O3062      C3063   1.262       .  A
C3063      O3064   1.265       .  A
C3063      C3245   1.465       .  S
O3064     Cr3069   2.001       .  S
O3065     Cr3069   2.000       .  S
O3065      C3066   1.262       .  A
C3066      C3296   1.483       .  S
Cr3067     O3070   1.767       .  S
Cr3068     O3070   1.767       .  S
Cr3069     O3070   1.769       .  S
O3071     Cr3089   2.024       .  S
O3071      C3079   1.273       .  A
O3072     Cr3089   1.971       .  S
O3072      C3073   1.259       .  A
C3073      O3074   1.264       .  A
C3073      C3173   1.486       .  S
O3074     Cr3090   2.017       .  S
O3075     Cr3090   1.996       .  S
O3075      C3076   1.264       .  A
C3076      O3077   1.261       .  A
C3076      C3224   1.472       .  S
O3077     Cr3091   1.990       .  S
O3078     Cr3091   1.992       .  S
O3078      C3079   1.267       .  A
C3079      C3161   1.509       .  S
O3080     Cr3089   1.988       .  S
O3080      C3088   1.258       .  A
O3081     Cr3089   2.018       .  S
O3081      C3082   1.268       .  A
C3082      O3083   1.256       .  A
C3082      C3209   1.474       .  S
O3083     Cr3090   1.962       .  S
O3084     Cr3090   1.994       .  S
O3084      C3085   1.264       .  A
C3085      O3086   1.266       .  A
C3085      C3185   1.471       .  S
O3086     Cr3091   1.998       .  S
O3087     Cr3091   1.993       .  S
O3087      C3088   1.261       .  A
C3088      C3413   1.482       .  S
Cr3089     O3092   1.772       .  S
Cr3090     O3092   1.772       .  S
Cr3091     O3092   1.769       .  S
O3093     Cr3111   1.973       .  S
O3093      C3101   1.272       .  A
O3094     Cr3111   2.005       .  S
O3094      C3095   1.255       .  A
C3095      O3096   1.253       .  A
C3095      C3188   1.479       .  S
O3096     Cr3112   1.991       .  S
O3097     Cr3112   1.998       .  S
O3097      C3098   1.261       .  A
C3098      O3099   1.257       .  A
C3098      C3137   1.481       .  S
O3099     Cr3113   1.960       .  S
O3100     Cr3113   2.050       .  S
O3100      C3101   1.285       .  A
C3101      C3200   1.497       .  S
O3102     Cr3111   1.996       .  S
O3102      C3110   1.253       .  A
O3103     Cr3111   1.983       .  S
O3103      C3104   1.269       .  A
C3104      O3105   1.275       .  A
C3104      C3149   1.468       .  S
O3105     Cr3112   2.014       .  S
O3106     Cr3112   1.953       .  S
O3106      C3107   1.258       .  A
C3107      O3108   1.269       .  A
C3107      C3176   1.492       .  S
O3108     Cr3113   2.021       .  S
O3109     Cr3113   1.994       .  S
O3109      C3110   1.249       .  A
C3110      C3260   1.485       .  S
Cr3111     O3114   1.780       .  S
Cr3112     O3114   1.775       .  S
Cr3113     O3114   1.776       .  S
O3115     Cr3133   2.037       .  S
O3115      C3123   1.282       .  A
O3116     Cr3133   1.977       .  S
O3116      C3117   1.261       .  A
C3117      O3118   1.256       .  A
C3117      C3248   1.466       .  S
O3118     Cr3134   1.971       .  S
O3119     Cr3134   1.990       .  S
O3119      C3120   1.253       .  A
C3120      O3121   1.254       .  A
C3120      C3152   1.473       .  S
O3121     Cr3135   1.990       .  S
O3122     Cr3135   1.981       .  S
O3122      C3123   1.272       .  A
C3123      C3164   1.495       .  S
O3124     Cr3133   2.011       .  S
O3124      C3132   1.255       .  A
O3125     Cr3133   2.008       .  S
O3125      C3126   1.266       .  A
C3126      O3127   1.258       .  A
C3126      C3140   1.473       .  S
O3127     Cr3134   1.961       .  S
O3128     Cr3134   1.995       .  S
O3128      C3129   1.270       .  A
C3129      O3130   1.269       .  A
C3129      C3236   1.466       .  S
O3130     Cr3135   1.987       .  S
O3131     Cr3135   1.982       .  S
O3131      C3132   1.251       .  A
C3132      C3476   1.490       .  S
Cr3133     O3136   1.778       .  S
Cr3134     O3136   1.775       .  S
Cr3135     O3136   1.778       .  S
C3137      C3142   1.413       .  A
C3138      C3139   1.389       .  A
C3139      C3140   1.410       .  A
C3139      C3146   1.446       .  S
C3140      C3141   1.406       .  A
C3141      H3144   1.084       .  S
C3142      C3145   1.443       .  S
C3145      N3147   1.157       .  T
C3146      N3148   1.157       .  T
C3149      C3150   1.406       .  A
C3149      C3154   1.406       .  A
C3150      C3151   1.405       .  A
C3150      H3155   1.083       .  S
C3151      C3152   1.409       .  A
C3151      C3158   1.444       .  S
C3152      C3153   1.404       .  A
C3153      C3154   1.396       .  A
C3153      H3156   1.085       .  S
C3154      C3157   1.444       .  S
C3157      N3159   1.157       .  T
C3158      N3160   1.157       .  T
C3161      C3162   1.412       .  A
C3161      C3166   1.421       .  A
C3162      C3163   1.408       .  A
C3162      H3167   1.084       .  S
C3163      C3164   1.413       .  A
C3163      C3170   1.444       .  S
C3164      C3165   1.405       .  A
C3165      C3166   1.408       .  A
C3165      H3168   1.085       .  S
C3166      C3169   1.444       .  S
C3169      N3171   1.157       .  T
C3170      N3172   1.157       .  T
C3173      C3174   1.410       .  A
C3173      C3178   1.408       .  A
C3174      C3175   1.411       .  A
C3174      H3179   1.084       .  S
C3175      C3176   1.414       .  A
C3175      C3182   1.443       .  S
C3176      C3177   1.407       .  A
C3177      C3178   1.393       .  A
C3177      H3180   1.084       .  S
C3178      C3181   1.443       .  S
C3181      N3183   1.156       .  T
C3182      N3184   1.157       .  T
C3185      C3186   1.406       .  A
C3185      C3190   1.408       .  A
C3186      C3187   1.403       .  A
C3186      H3191   1.084       .  S
C3187      C3194   1.444       .  S
C3188      C3189   1.406       .  A
C3189      H3192   1.084       .  S
C3190      C3193   1.444       .  S
C3193      N3195   1.157       .  T
C3194      N3196   1.157   1_565  T
C3198      H3203   1.084       .  S
C3199      C3200   1.416       .  A
C3201      C3202   1.402       .  A
C3201      H3204   1.085       .  S
C3202      C3205   1.445       .  S
C3205      N3207   1.158       .  T
C3206      N3208   1.157       .  T
C3209      C3210   1.408       .  A
C3209      C3214   1.407       .  A
C3210      H3215   1.084       .  S
C3211      C3212   1.406   1_455  A
C3211      C3218   1.443       .  S
C3213      C3214   1.396       .  A
C3213      H3216   1.085       .  S
C3214      C3217   1.445       .  S
C3217      N3219   1.157       .  T
C3218      N3220   1.157       .  T
C3221      C3222   1.410       .  A
C3221      C3226   1.412       .  A
C3222      C3223   1.400       .  A
C3222      H3227   1.083       .  S
C3223      C3224   1.404       .  A
C3223      C3230   1.444       .  S
C3224      C3225   1.407       .  A
C3225      C3226   1.402       .  A
C3225      H3228   1.085       .  S
C3226      C3229   1.444       .  S
C3229      N3231   1.157       .  T
C3230      N3232   1.157       .  T
C3233      C3234   1.407       .  A
C3234      H3239   1.085       .  S
C3235      C3236   1.406       .  A
C3235      C3242   1.443       .  S
C3236      C3237   1.404       .  A
C3237      C3238   1.395       .  A
C3237      H3240   1.085       .  S
C3238      C3241   1.445       .  S
C3241      N3243   1.157       .  T
C3242      N3244   1.157       .  T
C3245      C3246   1.400       .  A
C3245      C3250   1.410       .  A
C3246      C3247   1.389       .  A
C3246      H3251   1.084       .  S
C3247      C3248   1.409       .  A
C3247      C3254   1.446       .  S
C3248      C3249   1.405       .  A
C3249      C3250   1.406       .  A
C3249      H3252   1.084       .  S
C3250      C3253   1.443       .  S
C3253      N3255   1.157       .  T
C3254      N3256   1.157       .  T
C3257      C3258   1.408       .  A
C3257      C3262   1.417       .  A
C3258      C3259   1.396       .  A
C3258      H3263   1.085       .  S
C3259      C3260   1.410       .  A
C3259      C3266   1.446       .  S
C3260      C3261   1.406       .  A
C3261      C3262   1.411       .  A
C3261      H3264   1.084       .  S
C3262      C3265   1.443       .  S
C3265      N3267   1.157       .  T
C3266      N3268   1.157       .  T
C3269      C3270   1.399       .  A
C3269      C3274   1.411       .  A
C3270      C3271   1.398       .  A
C3270      H3275   1.086       .  S
C3271      C3272   1.415       .  A
C3271      C3278   1.445       .  S
C3272      C3273   1.404       .  A
C3273      C3274   1.404       .  A
C3273      H3276   1.085       .  S
C3274      C3277   1.443       .  S
C3277      N3279   1.157       .  T
C3278      N3280   1.157       .  T
C3281      C3286   1.409       .  A
C3282      C3283   1.388       .  A
C3282      H3287   1.087       .  S
C3283      C3284   1.421       .  A
C3283      C3290   1.444       .  S
C3284      C3285   1.407       .  A
C3285      H3288   1.084       .  S
C3286      C3289   1.443       .  S
C3289      N3291   1.157       .  T
C3290      N3292   1.157       .  T
C3293      C3294   1.408       .  A
C3293      C3298   1.415       .  A
C3294      C3295   1.402       .  A
C3294      H3299   1.085       .  S
C3295      C3296   1.414       .  A
C3295      C3302   1.446       .  S
C3296      C3297   1.404       .  A
C3297      C3298   1.399       .  A
C3297      H3300   1.085       .  S
C3298      C3301   1.445       .  S
C3301      N3303   1.157       .  T
C3302      N3304   1.158       .  T
C3305      C3306   1.407       .  A
C3306      C3307   1.399       .  A
C3306      H3311   1.085       .  S
C3307      C3314   1.445       .  S
C3308      C3309   1.408       .  A
C3309      C3310   1.409       .  A
C3309      H3312   1.084       .  S
C3310      C3313   1.443       .  S
C3313      N3315   1.157       .  T
C3314      N3316   1.157       .  T
C3317      C3318   1.409       .  A
C3317      C3322   1.426       .  A
C3318      C3319   1.412       .  A
C3318      H3323   1.084       .  S
C3319      C3320   1.413       .  A
C3319      C3326   1.443       .  S
C3320      C3321   1.392       .  A
C3321      C3322   1.393       .  A
C3321      H3324   1.086       .  S
C3322      C3325   1.445       .  S
C3325      N3327   1.157       .  T
C3326      N3328   1.157       .  T
C3329      C3330   1.410       .  A
C3329      C3334   1.410       .  A
C3330      H3335   1.084       .  S
C3331      C3332   1.409       .  A
C3331      C3338   1.444       .  S
C3332      C3333   1.409       .  A
C3333      H3336   1.085       .  S
C3334      C3337   1.444       .  S
C3337      N3339   1.157       .  T
C3338      N3340   1.157       .  T
C3341      C3342   1.409       .  A
C3342      C3343   1.404       .  A
C3342      H3347   1.084       .  S
C3343      C3350   1.445       .  S
C3344      C3345   1.410       .  A
C3345      C3346   1.411       .  A
C3345      H3348   1.084       .  S
C3346      C3349   1.443       .  S
C3349      N3351   1.157       .  T
C3350      N3352   1.158       .  T
C3354      C3355   1.401       .  A
C3355      C3356   1.406       .  A
C3355      C3362   1.444       .  S
C3356      C3357   1.404       .  A
C3357      C3358   1.391       .  A
C3357      H3360   1.082       .  S
C3361      N3363   1.157       .  T
C3362      N3364   1.157       .  T
C3365      C3366   1.408       .  A
C3365      C3370   1.425       .  A
C3366      C3367   1.413       .  A
C3366      H3371   1.084       .  S
C3367      C3368   1.412       .  A
C3367      C3374   1.442       .  S
C3368      C3369   1.391       .  A
C3369      C3370   1.387       .  A
C3369      H3372   1.087       .  S
C3370      C3373   1.446       .  S
C3373      N3375   1.157       .  T
C3374      N3376   1.157       .  T
C3378      C3379   1.391       .  A
C3379      C3380   1.410       .  A
C3379      C3386   1.447       .  S
C3380      C3381   1.406       .  A
C3381      C3382   1.414       .  A
C3381      H3384   1.084       .  S
C3385      N3387   1.157       .  T
C3386      N3388   1.157       .  T
C3389      C3390   1.410       .  A
C3389      C3394   1.421       .  A
C3390      C3391   1.410       .  A
C3390      H3395   1.084       .  S
C3391      C3392   1.409       .  A
C3391      C3398   1.443       .  S
C3392      C3393   1.393       .  A
C3393      C3394   1.381       .  A
C3393      H3396   1.083       .  S
C3394      C3397   1.448       .  S
C3397      N3399   1.158       .  T
C3398      N3400   1.157       .  T
C3401      C3402   1.408       .  A
C3402      H3407   1.085       .  S
C3403      C3404   1.416       .  A
C3403      C3410   1.444       .  S
C3404      C3405   1.408       .  A
C3405      C3406   1.406       .  A
C3405      H3408   1.085       .  S
C3406      C3409   1.444       .  S
C3409      N3411   1.157       .  T
C3413      C3414   1.405       .  A
C3413      C3418   1.412       .  A
C3414      C3415   1.399       .  A
C3414      H3419   1.085       .  S
C3415      C3416   1.412       .  A
C3415      C3422   1.445       .  S
C3416      C3417   1.405       .  A
C3417      C3418   1.405       .  A
C3417      H3420   1.085       .  S
C3418      C3421   1.443       .  S
C3421      N3423   1.157       .  T
C3422      N3424   1.157       .  T
C3425      C3426   1.407       .  A
C3425      C3430   1.423       .  A
C3426      H3431   1.084       .  S
C3427      C3428   1.409       .  A
C3427      C3434   1.443       .  S
C3429      C3430   1.385   1_556  A
C3429      H3432   1.085       .  S
C3430      C3433   1.447   1_554  S
C3433      N3435   1.158       .  T
C3434      N3436   1.157       .  T
C3437      C3438   1.404   1_554  A
C3437      C3442   1.415       .  A
C3438      C3439   1.402       .  A
C3438      H3443   1.084       .  S
C3439      C3440   1.407       .  A
C3439      C3446   1.443       .  S
C3440      C3441   1.394   1_556  A
C3441      C3442   1.387       .  A
C3441      H3444   1.086       .  S
C3442      C3445   1.446       .  S
C3445      N3447   1.157       .  T
C3446      N3448   1.157       .  T
C3449      C3450   1.408       .  A
C3449      C3454   1.406       .  A
C3450      C3451   1.411       .  A
C3450      H3455   1.084       .  S
C3451      C3452   1.416       .  A
C3451      C3458   1.441       .  S
C3452      C3453   1.411       .  A
C3453      C3454   1.399       .  A
C3453      H3456   1.081       .  S
C3454      C3457   1.444   1_554  S
C3457      N3459   1.157       .  T
C3458      N3460   1.157       .  T
C3461      C3462   1.408       .  A
C3462      H3467   1.085       .  S
C3463      C3464   1.408       .  A
C3463      C3470   1.444       .  S
C3464      C3465   1.406       .  A
C3465      C3466   1.397       .  A
C3465      H3468   1.082       .  S
C3466      C3469   1.443   1_556  S
C3469      N3471   1.157       .  T
C3470      N3472   1.157       .  T
C3473      C3474   1.398       .  A
C3473      C3478   1.412       .  A
C3474      C3475   1.396       .  A
C3474      H3479   1.086       .  S
C3475      C3476   1.416       .  A
C3475      C3482   1.444       .  S
C3476      C3477   1.409       .  A
C3477      C3478   1.412       .  A
C3477      H3480   1.084       .  S
C3478      C3481   1.443       .  S
C3481      N3483   1.157       .  T
C3482      N3484   1.157       .  T
C3485      C3490   1.417       .  A
C3486      C3487   1.405       .  A
C3486      H3491   1.085       .  S
C3487      C3488   1.418       .  A
C3487      C3494   1.445       .  S
C3489      C3490   1.410       .  A
C3489      H3492   1.085       .  S
C3490      C3493   1.442       .  S
C3493      N3495   1.157       .  T
C3494      N3496   1.157       .  T
C3497      C3498   1.408       .  A
C3497      C3502   1.407       .  A
C3498      C3499   1.400       .  A
C3498      H3503   1.083       .  S
C3499      C3500   1.405       .  A
C3499      C3506   1.444       .  S
C3500      C3501   1.406       .  A
C3501      C3502   1.395       .  A
C3501      H3504   1.086       .  S
C3502      C3505   1.444       .  S
C3505      N3507   1.157       .  T
C3506      N3508   1.157       .  T
C3509      C3514   1.416       .  A
C3510      C3511   1.386       .  A
C3510      H3515   1.085       .  S
C3511      C3512   1.411   1_556  A
C3511      C3518   1.447       .  S
C3512      C3513   1.407       .  A
C3513      H3516   1.084       .  S
C3514      C3517   1.442       .  S
C3517      N3519   1.157       .  T
C3518      N3520   1.157       .  T
C3522      C3523   1.407   1_545  A
C3523      C3524   1.409       .  A
C3523      C3530   1.444       .  S
C3524      C3525   1.405       .  A
C3525      C3526   1.401       .  A
C3525      H3528   1.085       .  S
C3529      N3531   1.157       .  T
C3530      N3532   1.157       .  T
C3533      C3534   1.408       .  A
C3533      C3538   1.409       .  A
C3534      C3535   1.403       .  A
C3534      H3539   1.084       .  S
C3535      C3536   1.407       .  A
C3535      C3542   1.444       .  S
C3536      C3537   1.404       .  A
C3537      C3538   1.398       .  A
C3537      H3540   1.085       .  S
C3538      C3541   1.445       .  S
C3541      N3543   1.157   1_554  T
C3542      N3544   1.157       .  T
C3545      C3546   1.403       .  A
C3545      C3550   1.410       .  A
C3546      C3547   1.396       .  A
C3546      H3551   1.086       .  S
C3547      C3548   1.415       .  A
C3547      C3554   1.445       .  S
C3548      C3549   1.408       .  A
C3549      C3550   1.405       .  A
C3549      H3552   1.085       .  S
C3550      C3553   1.443       .  S
C3553      N3555   1.157       .  T
C3554      N3556   1.157       .  T
C3557      C3558   1.405       .  A
C3557      C3562   1.412       .  A
C3558      C3559   1.408       .  A
C3558      H3563   1.085       .  S
C3559      C3560   1.415       .  A
C3559      C3566   1.444       .  S
C3560      C3561   1.404       .  A
C3561      C3562   1.400       .  A
C3561      H3564   1.085       .  S
C3562      C3565   1.444       .  S
C3565      N3567   1.157       .  T
C3566      N3568   1.157       .  T
C3569      C3570   1.412       .  A
C3569      C3574   1.418       .  A
C3570      C3571   1.409       .  A
C3570      H3575   1.084       .  S
C3571      C3572   1.414       .  A
C3571      C3578   1.444       .  S
C3572      C3573   1.408       .  A
C3573      C3574   1.405       .  A
C3573      H3576   1.085       .  S
C3574      C3577   1.444       .  S
C3577      N3579   1.157       .  T
C3578      N3580   1.157       .  T
C3581      C3582   1.405       .  A
C3581      C3586   1.418       .  A
C3582      C3583   1.394       .  A
C3582      H3587   1.085       .  S
C3583      C3584   1.410       .  A
C3583      C3590   1.446       .  S
C3584      C3585   1.404       .  A
C3585      C3586   1.409       .  A
C3585      H3588   1.085       .  S
C3586      C3589   1.443       .  S
C3589      N3591   1.157       .  T
C3590      N3592   1.157       .  T
C3593      C3594   1.398       .  A
C3593      C3598   1.412       .  A
C3594      H3599   1.085       .  S
C3595      C3596   1.415       .  A
C3595      C3602   1.445       .  S
C3596      C3597   1.404       .  A
C3597      H3600   1.084       .  S
C3598      C3601   1.442       .  S
C3601      N3603   1.157       .  T
C3602      N3604   1.157       .  T
C3605      C3606   1.404       .  A
C3605      C3610   1.409       .  A
C3606      C3607   1.400       .  A
C3606      H3611   1.085       .  S
C3607      C3608   1.410       .  A
C3607      C3614   1.442       .  S
C3608      C3609   1.409       .  A
C3609      C3610   1.406       .  A
C3609      H3612   1.084       .  S
C3610      C3613   1.443       .  S
C3613      N3615   1.157       .  T
C3614      N3616   1.156       .  T
C3617      C3618   1.404       .  A
C3617      C3622   1.408       .  A
C3618      C3619   1.396       .  A
C3618      H3623   1.084       .  S
C3619      C3620   1.405       .  A
C3619      C3626   1.443       .  S
C3620      C3621   1.404       .  A
C3621      C3622   1.401       .  A
C3621      H3624   1.085       .  S
C3622      C3625   1.444       .  S
C3625      N3627   1.157       .  T
C3626      N3628   1.157       .  T
C3629      C3630   1.409       .  A
C3630      H3635   1.084       .  S
C3631      C3632   1.411       .  A
C3631      C3638   1.443       .  S
C3632      C3633   1.396       .  A
C3633      C3634   1.390       .  A
C3633      H3636   1.086       .  S
C3634      C3637   1.447       .  S
C3637      N3639   1.157       .  T
C3638      N3640   1.157       .  T
C3641      C3642   1.405       .  A
C3641      C3646   1.413       .  A
C3642      C3643   1.407       .  A
C3642      H3647   1.085       .  S
C3643      C3644   1.420       .  A
C3643      C3650   1.444       .  S
C3644      C3645   1.410       .  A
C3645      C3646   1.406       .  A
C3645      H3648   1.084       .  S
C3646      C3649   1.444       .  S
C3649      N3651   1.157       .  T
C3650      N3652   1.157       .  T
C3654      H3659   1.085       .  S
C3655      C3656   1.412       .  A
C3657      C3658   1.407       .  A
C3657      H3660   1.085       .  S
C3658      C3661   1.444       .  S
C3661      N3663   1.157       .  T
C3662      N3664   1.157       .  T
C3665      C3670   1.409       .  A
C3666      C3667   1.390       .  A
C3666      H3671   1.086       .  S
C3667      C3668   1.423       .  A
C3667      C3674   1.446       .  S
C3668      C3669   1.405       .  A
C3669      H3672   1.084       .  S
C3670      C3673   1.443       .  S
C3673      N3675   1.157       .  T
C3674      N3676   1.157       .  T
C3677      C3678   1.397       .  A
C3677      C3682   1.413       .  A
C3678      C3679   1.381       .  A
C3678      H3683   1.086       .  S
C3679      C3680   1.412       .  A
C3679      C3686   1.447       .  S
C3680      C3681   1.404       .  A
C3681      C3682   1.408       .  A
C3681      H3684   1.084       .  S
C3682      C3685   1.443       .  S
C3685      N3687   1.157       .  T
C3686      N3688   1.157       .  T
C3689      C3690   1.404       .  A
C3689      C3694   1.408       .  A
C3690      H3695   1.085       .  S
C3691      C3692   1.409   1_455  A
C3691      C3698   1.445       .  S
C3693      C3694   1.406       .  A
C3693      H3696   1.085       .  S
C3694      C3697   1.443       .  S
C3697      N3699   1.157       .  T
C3698      N3700   1.157       .  T
C3701      C3702   1.405       .  A
C3701      C3706   1.408       .  A
C3702      C3703   1.399       .  A
C3702      H3707   1.085       .  S
C3703      C3704   1.410       .  A
C3703      C3710   1.444       .  S
C3704      C3705   1.409       .  A
C3705      C3706   1.405       .  A
C3705      H3708   1.085       .  S
C3706      C3709   1.444       .  S
C3709      N3711   1.157       .  T
C3710      N3712   1.157       .  T
