geometry optimzed in LAMMPS
_audit_creation_date              2020-12-01 
_audit_creation_method            'lammps2cif' 
_symmetry_space_group_name_H-M    'P1' 
_symmetry_Int_Tables_number       1 
_symmetry_cell_setting            triclinic 
loop_ 
_symmetry_equiv_pos_as_xyz 
  x,y,z 
_cell_length_a                    33.09029727 
_cell_length_b                    33.091953386147516 
_cell_length_c                    37.066507832008035 
_cell_angle_alpha                 89.99397070601036 
_cell_angle_beta                  90.0079510446461 
_cell_angle_gamma                 90.01355553025229 
loop_ 
_atom_site_label 
_atom_site_type_symbol 
_atom_site_fract_x 
_atom_site_fract_y 
_atom_site_fract_z 
_atom_site_charge 
O1          O  0.42226384  0.93149373  0.46240809    -0.83100
O2          O  0.46940414  0.93417472  0.39877649    -0.80100
C3          C  0.50227365  0.91506667  0.40089260     1.00400
O4          O  0.50258586  0.87832427  0.41005609    -0.80200
O5          O  0.47074306  0.80381523  0.43546727    -0.82800
C6          C  0.45853928  0.80366310  0.46816377     1.04900
O7          O  0.42953261  0.82564618  0.47806959    -0.75600
O8          O  0.37523962  0.88813456  0.47821178    -0.75700
C9          C  0.39721781  0.91828954  0.48524524     1.04900
O10         O  0.35185394  0.91991791  0.41810836    -0.83100
O11         O  0.40054854  0.91403043  0.35894167    -0.80100
C12         C  0.42487708  0.89832074  0.33694958     1.00400
O13         O  0.45254574  0.87428164  0.34714259    -0.80200
O14         O  0.42045413  0.80303527  0.37085622    -0.82800
C15         C  0.39782979  0.77993351  0.38849975     1.04900
O16         O  0.38797501  0.78816629  0.42039108    -0.75600
O17         O  0.33891441  0.85516455  0.41426075    -0.75700
C18         C  0.32776490  0.89134388  0.41116177     1.04800
Cr19       Cr  0.41195892  0.92071485  0.41049305     1.93700
Cr20       Cr  0.45854920  0.84184821  0.39314464     1.93200
Cr21       Cr  0.38564042  0.84151341  0.44527720     1.39100
O22         O  0.41937757  0.86797028  0.41642246    -1.20800
O23         O  0.42274020  0.59233251  0.04991594    -0.83100
O24         O  0.46992346  0.58974171  0.11354571    -0.80100
C25         C  0.50276079  0.60892688  0.11148472     1.00400
O26         O  0.50301755  0.64569613  0.10238751    -0.80200
O27         O  0.47099153  0.72015489  0.07695389    -0.82800
C28         C  0.45878562  0.72028254  0.04425271     1.04900
O29         O  0.42986860  0.69818014  0.03432571    -0.75600
O30         O  0.37564903  0.63560691  0.03413983    -0.75700
C31         C  0.39765195  0.60548924  0.02709023     1.04900
O32         O  0.35234274  0.60375322  0.09424210    -0.83100
O33         O  0.40105218  0.60969355  0.15340569    -0.80100
C34         C  0.42533352  0.62546415  0.17541693     1.00400
O35         O  0.45293850  0.64959871  0.16525183    -0.80200
O36         O  0.42067368  0.72078085  0.14154501    -0.82800
C37         C  0.39800257  0.74382499  0.12388778     1.04900
O38         O  0.38822925  0.73558361  0.09197616    -0.75600
O39         O  0.33930690  0.66848401  0.09808834    -0.75700
C40         C  0.32820885  0.63228442  0.10116333     1.04800
Cr41       Cr  0.41245159  0.60307537  0.10184750     1.93700
Cr42       Cr  0.45887933  0.68206493  0.11926527     1.93200
Cr43       Cr  0.38599838  0.68223153  0.06709076     1.39100
O44         O  0.41977600  0.65584236  0.09595104    -1.20800
O45         O  0.36202084  0.62193877  0.28410813    -0.83100
O46         O  0.29951532  0.56762330  0.28423396    -0.80100
C47         C  0.27738043  0.53873376  0.29416764     1.00400
O48         O  0.27747379  0.52657483  0.32688500    -0.80200
O49         O  0.35194490  0.49459604  0.35235625    -0.82800
C50         C  0.38871125  0.49487482  0.36146907     1.04900
O51         O  0.40787827  0.52772245  0.36355124    -0.75600
O52         O  0.40531572  0.57488930  0.29993137    -0.75700
C53         C  0.39215627  0.59995049  0.27708756     1.04900
O54         O  0.32900756  0.65824596  0.34800527    -0.83100
O55         O  0.26198275  0.60923277  0.34183462    -0.80100
C56         C  0.25375740  0.59952484  0.37376472     1.00400
O57         O  0.27683406  0.57693037  0.39146293    -0.80200
O58         O  0.34799520  0.54467421  0.41522665    -0.82800
C59         C  0.37209976  0.57230112  0.42540713     1.04900
O60         O  0.38785341  0.59659484  0.40340085    -0.75600
O61         O  0.39376828  0.64529370  0.34424303    -0.75700
C62         C  0.36519011  0.66938372  0.35114198     1.04800
Cr63       Cr  0.31536440  0.61153375  0.31700246     1.93700
Cr64       Cr  0.31555037  0.53871376  0.36921705     1.93200
Cr65       Cr  0.39451705  0.58518640  0.35184778     1.39100
O66         O  0.34176391  0.57781151  0.34590478    -1.20800
O67         O  0.10933838  0.62197759  0.22799375    -0.83100
O68         O  0.17189576  0.56776020  0.22792438    -0.80100
C69         C  0.19394056  0.53878586  0.21805261     1.00400
O70         O  0.19380437  0.52653014  0.18536828    -0.80200
O71         O  0.11933327  0.49456259  0.15987017    -0.82800
C72         C  0.08258315  0.49484182  0.15070973     1.04900
O73         O  0.06344850  0.52769363  0.14859397    -0.75600
O74         O  0.06604731  0.57488426  0.21221091    -0.75700
C75         C  0.07921856  0.59995933  0.23504151     1.04900
O76         O  0.14230234  0.65828747  0.16404087    -0.83100
O77         O  0.20936630  0.60931705  0.17025490    -0.80100
C78         C  0.21765145  0.59944586  0.13838050     1.00400
O79         O  0.19460051  0.57677310  0.12073033    -0.80200
O80         O  0.12340264  0.54460248  0.09696204    -0.82800
C81         C  0.09932230  0.57222783  0.08675005     1.04900
O82         O  0.08354623  0.59652870  0.10872891    -0.75600
O83         O  0.07756115  0.64526442  0.16786154    -0.75700
C84         C  0.10610766  0.66939388  0.16093733     1.04800
Cr85       Cr  0.15599241  0.61160069  0.19509244     1.93700
Cr86       Cr  0.15579268  0.53864892  0.14299829     1.93200
Cr87       Cr  0.07684498  0.58515520  0.16028505     1.39100
O88         O  0.12959917  0.57780397  0.16624195    -1.20800
O89         O  0.04829988  0.93145938  0.04979018    -0.83100
O90         O  0.00115329  0.93399286  0.11343288    -0.80100
C91         C  0.96831523  0.91481246  0.11135404     1.00400
O92         O  0.96805940  0.87806228  0.10220052    -0.80200
O93         O  0.00008417  0.80362478  0.07670849    -0.82800
C94         C  0.01232015  0.80349460  0.04401870     1.04900
O95         O  0.04125475  0.82558902  0.03411613    -0.75600
O96         O  0.09541010  0.88822010  0.03399249    -0.75700
C97         C  0.07337292  0.91831949  0.02695256     1.04900
O98         O  0.11872755  0.92003223  0.09410288    -0.83100
O99         O  0.07003855  0.91399523  0.15326250    -0.80100
C100        C  0.04575807  0.89820392  0.17526020     1.00400
O101        O  0.01815332  0.87407486  0.16507371    -0.80200
O102        O  0.05038732  0.80290178  0.14131364    -0.82800
C103        C  0.07308929  0.77989101  0.12366192     1.04900
O104        O  0.08290406  0.78818250  0.09177169    -0.75600
O105        O  0.13178201  0.85530825  0.09794284    -0.75700
C106        C  0.14286598  0.89150896  0.10104648     1.04800
Cr107      Cr  0.05861902  0.92067325  0.10171107     1.93700
Cr108      Cr  0.01219740  0.84166196  0.11905539     1.93200
Cr109      Cr  0.08510239  0.84155710  0.06691439     1.39100
O110        O  0.05130489  0.86790850  0.09577445    -1.20800
O111        O  0.04878491  0.59221061  0.46222756    -0.83100
O112        O  0.00162227  0.58953524  0.39860062    -0.80100
C113        C  0.96874978  0.60863312  0.40071484     1.00400
O114        O  0.96842528  0.64537967  0.40986039    -0.80200
O115        O  0.00026648  0.71991084  0.43525056    -0.82800
C116        C  0.01248207  0.72007195  0.46794738     1.04900
O117        O  0.04147090  0.69806570  0.47786388    -0.75600
O118        O  0.09578833  0.63559386  0.47802801    -0.75700
C119        C  0.07383871  0.60541834  0.48506180     1.04900
O120        O  0.11915951  0.60381585  0.41792514    -0.83100
O121        O  0.07044841  0.60969272  0.35874817    -0.80100
C122        C  0.04610698  0.62539355  0.33675207     1.00400
O123        O  0.01843787  0.64942822  0.34694216    -0.80200
O124        O  0.05053189  0.72068263  0.37064204    -0.82800
C125        C  0.07315174  0.74378735  0.38828917     1.04900
O126        O  0.08300819  0.73555392  0.42018349    -0.75600
O127        O  0.13208265  0.66857391  0.41407591    -0.75700
C128        C  0.14324343  0.63239812  0.41100016     1.04800
Cr129      Cr  0.05906091  0.60300435  0.41030644     1.93700
Cr130      Cr  0.01244783  0.68186493  0.39293887     1.93200
Cr131      Cr  0.08536138  0.68221053  0.44508093     1.39100
O132        O  0.05162865  0.65574716  0.41622604    -1.20800
O133        O  0.36164368  0.90173597  0.22815814    -0.83100
O134        O  0.29908126  0.95593124  0.22799847    -0.80100
C135        C  0.27709914  0.98494711  0.21810414     1.00400
O136        O  0.27727094  0.99721094  0.18542494    -0.80200
O137        O  0.35175412  0.02912886  0.16001734    -0.82800
C138        C  0.38850113  0.02884615  0.15086748     1.04900
O139        O  0.40763212  0.99599321  0.14876826    -0.75600
O140        O  0.40495526  0.94882584  0.21240537    -0.75700
C141        C  0.39176100  0.92375275  0.23522787     1.04900
O142        O  0.32875860  0.86541284  0.16417048    -0.83100
O143        O  0.26167709  0.91437474  0.17028884    -0.80100
C144        C  0.25340239  0.92429959  0.13841992     1.00400
O145        O  0.27646907  0.94698715  0.12080163    -0.80200
O146        O  0.34772050  0.97909930  0.09710758    -0.82800
C147        C  0.37179524  0.95146249  0.08692470     1.04900
O148        O  0.38754982  0.92715670  0.10892075    -0.75600
O149        O  0.39349244  0.87843617  0.16808278    -0.75700
C150        C  0.36495738  0.85430455  0.16112909     1.04800
Cr151      Cr  0.31502461  0.91209715  0.19519478     1.93700
Cr152      Cr  0.31529518  0.98507007  0.14310434     1.93200
Cr153      Cr  0.39421184  0.93854070  0.16047603     1.39100
O154        O  0.34145069  0.94589707  0.16637325    -1.20800
O155        O  0.10908021  0.90180950  0.28398568    -0.83100
O156        O  0.17159121  0.95611503  0.28418525    -0.80100
C157        C  0.19369144  0.98502229  0.29413756     1.00400
O158        O  0.19358141  0.99717087  0.32685103    -0.80200
O159        O  0.11911498  0.02914251  0.35222948    -0.82800
C160        C  0.08234960  0.02887358  0.36132761     1.04900
O161        O  0.06316149  0.99603567  0.36337229    -0.75600
O162        O  0.06576315  0.94885479  0.29975327    -0.75700
C163        C  0.07893469  0.92377796  0.27693452     1.04900
O164        O  0.14201156  0.86549133  0.34792504    -0.83100
O165        O  0.20906727  0.91448548  0.34183051    -0.80100
C166        C  0.21727734  0.92421237  0.37376144     1.00400
O167        O  0.19418663  0.94681521  0.39142791    -0.80200
O168        O  0.12299712  0.97907468  0.41510602    -0.82800
C169        C  0.09886969  0.95146226  0.42526540     1.04900
O170        O  0.08312968  0.92716824  0.40325116    -0.75600
O171        O  0.07725747  0.87846406  0.34409365    -0.75700
C172        C  0.10582191  0.85436099  0.35101175     1.04800
Cr173      Cr  0.15570399  0.91220357  0.31693638     1.93700
Cr174      Cr  0.15548166  0.98502631  0.36913612     1.93200
Cr175      Cr  0.07651817  0.93856981  0.35168710     1.39100
O176        O  0.12928195  0.94593112  0.34580306    -1.20800
O177        O  0.56612860  0.44893172  0.21239296    -0.83100
O178        O  0.56348221  0.49612075  0.14876538    -0.80100
C179        C  0.58268286  0.52894956  0.15080834     1.00400
O180        O  0.61945369  0.52919243  0.15989870    -0.80200
O181        O  0.69389689  0.49717475  0.18530700    -0.82800
C182        C  0.69405031  0.48495763  0.21800236     1.04900
O183        O  0.67201459  0.45598577  0.22792389    -0.75600
O184        O  0.60939525  0.40181350  0.22812918    -0.75700
C185        C  0.57929500  0.42383181  0.23520165     1.04900
O186        O  0.57746274  0.37853532  0.16805490    -0.83100
O187        O  0.58338616  0.42725145  0.10889685    -0.80100
C188        C  0.59917549  0.45151473  0.08688234     1.00400
O189        O  0.62332464  0.47910989  0.09703721    -0.80200
O190        O  0.69451383  0.44687027  0.12070470    -0.82800
C191        C  0.71756431  0.42418443  0.13833540     1.04900
O192        O  0.70932709  0.41435525  0.17023250    -0.75600
O193        O  0.64218417  0.36546635  0.16414703    -0.75700
C194        C  0.60597247  0.35438532  0.16110574     1.04800
Cr195      Cr  0.57681283  0.43864544  0.16045698     1.93700
Cr196      Cr  0.65580506  0.48505481  0.14300732     1.93200
Cr197      Cr  0.65599621  0.41214193  0.19515000     1.39100
O198        O  0.62959252  0.44594672  0.16632215    -1.20800
O199        O  0.90526336  0.44864313  0.29979398    -0.83100
O200        O  0.90795645  0.49578977  0.36342002    -0.80100
C201        C  0.88884203  0.52865774  0.36132092     1.00400
O202        O  0.85209272  0.52897510  0.35217188    -0.80200
O203        O  0.77755519  0.49713921  0.32679251    -0.82800
C204        C  0.77741497  0.48496575  0.29408626     1.04900
O205        O  0.79944146  0.45600547  0.28415926    -0.75600
O206        O  0.86186994  0.40165373  0.28398692    -0.75700
C207        C  0.89204691  0.42360201  0.27695853     1.04900
O208        O  0.89364437  0.37824321  0.34409380    -0.83100
O209        O  0.88781918  0.42693669  0.40326342    -0.80100
C210        C  0.87212842  0.45126918  0.42526171     1.00400
O211        O  0.84809265  0.47894275  0.41507781    -0.80200
O212        O  0.77684337  0.44682607  0.39139040    -0.82800
C213        C  0.75371608  0.42423802  0.37373490     1.04900
O214        O  0.76191251  0.41444569  0.34181989    -0.75600
O215        O  0.82887357  0.36534533  0.34791775    -0.75700
C216        C  0.86504573  0.35417324  0.35101856     1.04800
Cr217      Cr  0.89448546  0.43834584  0.35171004     1.93700
Cr218      Cr  0.81562800  0.48494277  0.36909371     1.93200
Cr219      Cr  0.81525985  0.41208489  0.31692533     1.39100
O220        O  0.84174067  0.44578489  0.34579339    -1.20800
O221        O  0.87551412  0.38803621  0.03403802    -0.83100
O222        O  0.92971891  0.32548811  0.03418631    -0.80100
C223        C  0.95870207  0.30346678  0.04408485     1.00400
O224        O  0.97095358  0.30362153  0.07677037    -0.80200
O225        O  0.00289949  0.37810878  0.10221973    -0.82800
C226        C  0.00261412  0.41485879  0.11136744     1.04900
O227        O  0.96975807  0.43398908  0.11345918    -0.75600
O228        O  0.92259526  0.43134313  0.04982157    -0.75700
C229        C  0.89753539  0.41815278  0.02698456     1.04900
O230        O  0.83918351  0.35511027  0.09799675    -0.83100
O231        O  0.88813715  0.28805051  0.09186905    -0.80100
C232        C  0.89800637  0.27978547  0.12375352     1.00400
O233        O  0.92069545  0.30284055  0.14138547    -0.80200
O234        O  0.95285226  0.37406076  0.16510413    -0.82800
C235        C  0.92521932  0.39813673  0.17529076     1.04900
O236        O  0.90091324  0.41389676  0.15329756    -0.75600
O237        O  0.85219275  0.41984862  0.09413339    -0.75700
C238        C  0.82806798  0.39129994  0.10106201     1.04800
Cr239      Cr  0.88587261  0.34140604  0.06698234     1.93700
Cr240      Cr  0.95881768  0.34164827  0.11910163     1.93200
Cr241      Cr  0.91230147  0.42057575  0.10174483     1.39100
O242        O  0.91966047  0.36782023  0.09582722    -1.20800
O243        O  0.87540148  0.13548671  0.47815957    -0.83100
O244        O  0.92971434  0.19799734  0.47796690    -0.80100
C245        C  0.95863908  0.22007918  0.46801938     1.00400
O246        O  0.97078164  0.21997249  0.43530327    -0.80200
O247        O  0.00274883  0.14552102  0.40989421    -0.82800
C248        C  0.00247535  0.10875530  0.40080311     1.04900
O249        O  0.96963540  0.08956627  0.39877506    -0.75600
O250        O  0.92244900  0.09217169  0.46239070    -0.75700
C251        C  0.89737007  0.10534192  0.48520808     1.04900
O252        O  0.83907585  0.16841238  0.41422517    -0.83100
O253        O  0.88807958  0.23546565  0.42032402    -0.80100
C254        C  0.89780709  0.24367105  0.38839386     1.00400
O255        O  0.92040434  0.22058009  0.37072651    -0.80200
O256        O  0.95265651  0.14941735  0.34703449    -0.82800
C257        C  0.92504388  0.12528914  0.33687698     1.04900
O258        O  0.90076556  0.10953048  0.35889341    -0.75600
O259        O  0.85205886  0.10366223  0.41804635    -0.75700
C260        C  0.82795063  0.13222221  0.41113106     1.04800
Cr261      Cr  0.88579727  0.18210670  0.44521295     1.93700
Cr262      Cr  0.95862154  0.18188510  0.39300908     1.93200
Cr263      Cr  0.91216697  0.10292343  0.41045761     1.39100
O264        O  0.91952763  0.15568486  0.41634428    -1.20800
O265        O  0.56578600  0.07500547  0.29998745    -0.83100
O266        O  0.56316278  0.02785139  0.36361880    -0.80100
C267        C  0.58226156  0.99497943  0.36150374     1.00400
O268        O  0.61900664  0.99465401  0.35233954    -0.80200
O269        O  0.69353166  0.02651738  0.32688667    -0.82800
C270        C  0.69366911  0.03873239  0.29418831     1.04900
O271        O  0.67162883  0.06769683  0.28428039    -0.75600
O272        O  0.60915553  0.12200721  0.28415853    -0.75700
C273        C  0.57898468  0.10004469  0.27713839     1.04900
O274        O  0.57743586  0.14538756  0.34428606    -0.83100
O275        O  0.58335352  0.09668011  0.40345473    -0.80100
C276        C  0.59907007  0.07234175  0.42544292     1.00400
O277        O  0.62310345  0.04467714  0.41524103    -0.80200
O278        O  0.69432727  0.07679802  0.39149498    -0.82800
C279        C  0.71741131  0.09942799  0.37383733     1.04900
O280        O  0.70917203  0.10924260  0.34193435    -0.75600
O281        O  0.64220382  0.15829293  0.34808981    -0.75700
C282        C  0.60603434  0.16945823  0.35120158     1.04800
Cr283      Cr  0.57662279  0.08528897  0.35190193     1.93700
Cr284      Cr  0.65550701  0.03868985  0.36922465     1.93200
Cr285      Cr  0.65580376  0.11158354  0.31707254     1.39100
O286        O  0.62936285  0.07785602  0.34594708    -1.20800
O287        O  0.90502452  0.07472596  0.21236347    -0.83100
O288        O  0.90759099  0.02755811  0.14873336    -0.80100
C289        C  0.88840544  0.99472216  0.15079490     1.00400
O290        O  0.85164757  0.99446629  0.15992597    -0.80200
O291        O  0.77720941  0.02648644  0.18540181    -0.82800
C292        C  0.77707498  0.03871443  0.21809427     1.04900
O293        O  0.79914890  0.06766477  0.22800009    -0.75600
O294        O  0.86177520  0.12183584  0.22813876    -0.75700
C295        C  0.89187711  0.09980684  0.23518988     1.04900
O296        O  0.89361549  0.14513462  0.16803259    -0.83100
O297        O  0.88761299  0.09642993  0.10887989    -0.80100
C298        C  0.87181486  0.07215807  0.08687814     1.00400
O299        O  0.84768073  0.04455751  0.09705758    -0.80200
O300        O  0.77651908  0.07679350  0.12079333    -0.82800
C301        C  0.75349567  0.09948462  0.13843795     1.04900
O302        O  0.76176489  0.10929805  0.17033197    -0.75600
O303        O  0.82888860  0.15819276  0.16417900    -0.75700
C304        C  0.86509369  0.16927667  0.16109044     1.04800
Cr305      Cr  0.89426416  0.08502631  0.16043685     1.93700
Cr306      Cr  0.81525812  0.03860451  0.14306485     1.93200
Cr307      Cr  0.81512745  0.11151161  0.19520366     1.39100
O308        O  0.84149548  0.07771276  0.16635449    -1.20800
O309        O  0.59576312  0.38825161  0.47816475    -0.83100
O310        O  0.54151705  0.32568589  0.47803546    -0.80100
C311        C  0.51255345  0.30363447  0.46811577     1.00400
O312        O  0.50036687  0.30375286  0.43540826    -0.80200
O313        O  0.46840665  0.37818841  0.40991870    -0.82800
C314        C  0.46867926  0.41494607  0.40079347     1.04900
O315        O  0.50152444  0.43411770  0.39872574    -0.75600
O316        O  0.54867760  0.43152178  0.46235955    -0.75700
C317        C  0.57374362  0.41836086  0.48519871     1.04900
O318        O  0.63208824  0.35530835  0.41423832    -0.83100
O319        O  0.58312694  0.28823817  0.42040265    -0.80100
C320        C  0.57333512  0.27998934  0.38849813     1.00400
O321        O  0.55070853  0.30305418  0.37082456    -0.80200
O322        O  0.51850625  0.37421493  0.34706213    -0.82800
C323        C  0.54612684  0.39832838  0.33688876     1.04900
O324        O  0.57040273  0.41411058  0.35889644    -0.75600
O325        O  0.61909680  0.42005062  0.41805905    -0.75700
C326        C  0.64320403  0.39149898  0.41112749     1.04800
Cr327      Cr  0.58539537  0.34160541  0.44525211     1.93700
Cr328      Cr  0.51252450  0.34179184  0.39307064     1.93200
Cr329      Cr  0.55898811  0.42075955  0.41044536     1.39100
O330        O  0.55163552  0.36800061  0.41637471    -1.20800
O331        O  0.59553617  0.13563070  0.03417419    -0.83100
O332        O  0.54126244  0.19813101  0.03430735    -0.80100
C333        C  0.51233621  0.22021576  0.04421164     1.00400
O334        O  0.50011230  0.22007556  0.07690518    -0.80200
O335        O  0.46814901  0.14556886  0.10234240    -0.82800
C336        C  0.46843538  0.10881265  0.11147871     1.04900
O337        O  0.50128816  0.08967190  0.11356652    -0.75600
O338        O  0.54848981  0.09229088  0.04995687    -0.75700
C339        C  0.57356227  0.10547804  0.02713188     1.04900
O340        O  0.63185101  0.16858573  0.09811256    -0.83100
O341        O  0.58284566  0.23561404  0.09197228    -0.80100
C342        C  0.57303329  0.24385789  0.12387131     1.00400
O343        O  0.55039034  0.22078107  0.14152547    -0.80200
O344        O  0.51818615  0.14957469  0.16524216    -0.82800
C345        C  0.54581532  0.12549356  0.17543975     1.04900
O346        O  0.57012441  0.10974582  0.15345128    -0.70800
O347        O  0.61885951  0.10383535  0.09430671    -0.75700
C348        C  0.64297776  0.13240016  0.10120345     1.04800
Cr349      Cr  0.58513987  0.18225592  0.06710092     1.93700
Cr350      Cr  0.51223783  0.18200906  0.11923599     1.93200
Cr351      Cr  0.55875120  0.10307894  0.10188753     1.39100
O352        O  0.55138013  0.15583219  0.09595888    -1.20800
C353        C  0.49751339  0.27462138  0.49426451    -0.11000
C354        C  0.49742784  0.24929993  0.01807105    -0.12600
C355        C  0.71627204  0.11304706  0.12286582    -0.11000
C356        C  0.68345575  0.12308196  0.11206370    -0.12600
C357        C  0.58682818  0.24274471  0.37294288    -0.11000
C358        C  0.59678257  0.20992406  0.36211176    -0.12600
C359        C  0.72270249  0.02374889  0.26804362    -0.11000
C360        C  0.74802185  0.02374730  0.24423883    -0.12600
C361        C  0.58859159  0.07645171  0.46276623    -0.11000
C362        C  0.57939881  0.08607020  0.49301304    -0.12600
C363        C  0.55956569  0.10585270  0.24301684    -0.11000
C364        C  0.54993229  0.11501762  0.21276424    -0.12600
C365        C  0.89151574  0.08591792  0.01932036    -0.11000
C366        C  0.88230643  0.07628058  0.04956008    -0.12600
C367        C  0.92091115  0.11477530  0.29956602    -0.11000
C368        C  0.91128253  0.10559438  0.26931798    -0.12600
C369        C  0.78748353  0.12290265  0.40023957    -0.11000
C370        C  0.75466206  0.11291568  0.38941111    -0.12600
C371        C  0.87447367  0.20972941  0.15017622    -0.11000
C372        C  0.88449776  0.24253960  0.13933734    -0.12600
C373        C  0.97365550  0.24912269  0.49414042    -0.11000
C374        C  0.97367899  0.27444060  0.01794078    -0.12600
C375        C  0.91146104  0.41777181  0.24284975    -0.11000
C376        C  0.92109981  0.40860016  0.21260809    -0.12600
C377        C  0.89177008  0.43752377  0.49283889    -0.11000
C378        C  0.88262024  0.44713701  0.46257922    -0.12600
C379        C  0.87430379  0.31370454  0.36194211    -0.11000
C380        C  0.88427936  0.28089502  0.37280138    -0.12600
C381        C  0.71646705  0.41078182  0.38932802    -0.11000
C382        C  0.68365410  0.40082162  0.40019237    -0.12600
C383        C  0.75478519  0.41065162  0.12274574    -0.11000
C384        C  0.78759880  0.40063392  0.11193165    -0.12600
C385        C  0.72307954  0.49997392  0.24413892    -0.11000
C386        C  0.74838933  0.49998416  0.26795178    -0.12600
C387        C  0.58654290  0.28110582  0.13943882    -0.11000
C388        C  0.59657378  0.31392491  0.15024262    -0.12600
C389        C  0.57951858  0.43775789  0.01932258    -0.11000
C390        C  0.58867839  0.44738403  0.04957229    -0.12600
C391        C  0.55990462  0.41800519  0.26932842    -0.11000
C392        C  0.55026769  0.40881292  0.29957091    -0.12600
C393        C  0.03861323  0.08844764  0.38813681    -0.11000
C394        C  0.06204421  0.06501469  0.37398669    -0.12600
C395        C  0.43229250  0.08845665  0.12411333    -0.11000
C396        C  0.40884774  0.06499414  0.13823186    -0.12600
C397        C  0.24809599  0.99996784  0.24424415    -0.11000
C398        C  0.22276604  0.99999656  0.26803153    -0.12600
C399        C  0.93262706  0.58825173  0.38808995    -0.11000
C400        C  0.90919715  0.56478529  0.37396691    -0.12600
C401        C  0.08657459  0.78105729  0.37271655    -0.11000
C402        C  0.09651524  0.81389274  0.36189487    -0.12600
C403        C  0.90871676  0.95856716  0.13814228    -0.11000
C404        C  0.93215929  0.93512079  0.12401051    -0.12600
C405        C  0.18331492  0.90087511  0.11198274    -0.11000
C406        C  0.21613360  0.91085378  0.12283577    -0.12600
C407        C  0.99739689  0.77441748  0.01787835    -0.11000
C408        C  0.99745302  0.74909030  0.49408189    -0.12600
C409        C  0.04987389  0.90870371  0.21257946    -0.11000
C410        C  0.05950989  0.91792258  0.24281926    -0.12600
C411        C  0.08833353  0.94734860  0.46257465    -0.11000
C412        C  0.07914538  0.93772942  0.99282378    -0.12600
C413        C  0.03876400  0.43522089  0.12399585    -0.11000
C414        C  0.06222497  0.45868647  0.13809558    -0.12600
C415        C  0.05983043  0.60574306  0.26917540    -0.11000
C416        C  0.05022146  0.61490669  0.29943124    -0.12600
C417        C  0.08886635  0.57634896  0.04942143    -0.11000
C418        C  0.07968426  0.58599660  0.01917658    -0.12600
C419        C  0.08667919  0.74266344  0.13922509    -0.11000
C420        C  0.09675353  0.70985862  0.15003781    -0.12600
C421        C  0.40905656  0.45872214  0.37407227    -0.11000
C422        C  0.43252364  0.43527221  0.38816739    -0.12600
C423        C  0.21652963  0.61308330  0.38931645    -0.11000
C424        C  0.18371684  0.62310870  0.40012263    -0.12600
C425        C  0.24829308  0.52379773  0.26803257    -0.11000
C426        C  0.22296750  0.52381893  0.24422477    -0.12600
C427        C  0.56236948  0.56511804  0.13818791    -0.11000
C428        C  0.53892273  0.58859153  0.12409308    -0.12600
C429        C  0.39181938  0.58607384  0.99296886    -0.11000
C430        C  0.38260871  0.57643172  0.46272740    -0.12600
C431        C  0.41158021  0.60575869  0.24297398    -0.11000
C432        C  0.42121294  0.61495087  0.21273038    -0.12600
C433        C  0.25491673  0.61292668  0.12283323    -0.11000
C434        C  0.28774456  0.62292471  0.11203173    -0.12600
C435        C  0.38441029  0.78103639  0.13946359    -0.11000
C436        C  0.37432752  0.81383850  0.15026343    -0.12600
C437        C  0.56187903  0.95885751  0.37413806    -0.11000
C438        C  0.53840918  0.93542469  0.38825655    -0.12600
C439        C  0.38440104  0.74266905  0.37292045    -0.11000
C440        C  0.37447303  0.70984354  0.36206697    -0.12600
C441        C  0.47370746  0.74936861  0.01812415    -0.11000
C442        C  0.47361634  0.77468282  0.49431511    -0.12600
C443        C  0.25450146  0.91066189  0.38935652    -0.11000
C444        C  0.28730275  0.90064367  0.40021906    -0.12600
C445        C  0.41113165  0.91796382  0.26937252    -0.11000
C446        C  0.42074780  0.90880255  0.29962928    -0.12600
C447        C  0.39141631  0.93769472  0.01936253    -0.11000
C448        C  0.38225983  0.94733551  0.04960782    -0.12600
O449        O  0.42226383  0.93149379  0.96240807    -0.83100
O450        O  0.46940421  0.93417476  0.89877649    -0.80100
C451        C  0.50227359  0.91506667  0.90089252     1.00400
O452        O  0.50258583  0.87832429  0.91005613    -0.80200
O453        O  0.47074313  0.80381526  0.93546727    -0.82800
C454        C  0.45853935  0.80366304  0.96816365     1.04900
O455        O  0.42953272  0.82564620  0.97806957    -0.75600
O456        O  0.37523963  0.88813458  0.97821180    -0.75700
C457        C  0.39721773  0.91828953  0.98524528     1.04900
O458        O  0.35185397  0.91991792  0.91810833    -0.83100
O459        O  0.40054861  0.91403038  0.85894162    -0.80100
C460        C  0.42487707  0.89832073  0.83694947     1.00400
O461        O  0.45254578  0.87428165  0.84714254    -0.80200
O462        O  0.42045411  0.80303525  0.87085620    -0.82800
C463        C  0.39782985  0.77993349  0.88849970     1.04900
O464        O  0.38797511  0.78816625  0.92039111    -0.75600
O465        O  0.33891443  0.85516454  0.91426091    -0.75700
C466        C  0.32776494  0.89134386  0.91116187     1.04800
Cr467      Cr  0.41195898  0.92071482  0.91049305     1.93700
Cr468      Cr  0.45854918  0.84184825  0.89314465     1.93200
Cr469      Cr  0.38564050  0.84151339  0.94527726     1.39100
O470        O  0.41937760  0.86797028  0.91642252    -1.20800
O471        O  0.42274021  0.59233250  0.54991602    -0.83100
O472        O  0.46992351  0.58974171  0.61354572    -0.80100
C473        C  0.50276079  0.60892693  0.61148484     1.00400
O474        O  0.50301759  0.64569613  0.60238750    -0.80200
O475        O  0.47099159  0.72015487  0.57695386    -0.82800
C476        C  0.45878568  0.72028255  0.54425262     1.04900
O477        O  0.42986863  0.69818013  0.53432567    -0.75600
O478        O  0.37564907  0.63560693  0.53413983    -0.75700
C479        C  0.39765187  0.60548922  0.52709026     1.04900
O480        O  0.35234279  0.60375322  0.59424216    -0.83100
O481        O  0.40105219  0.60969353  0.65340580    -0.80100
C482        C  0.42533342  0.62546422  0.67541698     1.00400
O483        O  0.45293846  0.64959879  0.66525186    -0.80200
O484        O  0.42067371  0.72078094  0.64154488    -0.82800
C485        C  0.39800235  0.74382498  0.62388767     1.04900
O486        O  0.38822924  0.73558368  0.59197604    -0.75600
O487        O  0.33930692  0.66848404  0.59808823    -0.75700
C488        C  0.32820884  0.63228444  0.60116326     1.04800
Cr489      Cr  0.41245164  0.60307536  0.60184755     1.93700
Cr490      Cr  0.45887939  0.68206496  0.61926524     1.93200
Cr491      Cr  0.38599842  0.68223156  0.56709069     1.39100
O492        O  0.41977615  0.65584236  0.59595093    -1.20800
O493        O  0.36202076  0.62193877  0.78410806    -0.83100
O494        O  0.29951524  0.56762336  0.78423390    -0.80100
C495        C  0.27738053  0.53873375  0.79416759     1.00400
O496        O  0.27747381  0.52657486  0.82688495    -0.80200
O497        O  0.35194489  0.49459602  0.85235617    -0.82800
C498        C  0.38871117  0.49487479  0.86146907     1.04900
O499        O  0.40787833  0.52772235  0.86355113    -0.75600
O500        O  0.40531568  0.57488936  0.79993136    -0.75700
C501        C  0.39215627  0.59995057  0.77708752     1.04900
O502        O  0.32900754  0.65824602  0.84800519    -0.83100
O503        O  0.26198262  0.60923274  0.84183456    -0.80100
C504        C  0.25375739  0.59952482  0.87376473     1.00400
O505        O  0.27683411  0.57693040  0.89146284    -0.80200
O506        O  0.34799520  0.54467425  0.91522657    -0.82800
C507        C  0.37209978  0.57230112  0.92540706     1.04900
O508        O  0.38785349  0.59659485  0.90340088    -0.75600
O509        O  0.39376824  0.64529371  0.84424296    -0.75700
C510        C  0.36519009  0.66938374  0.85114198     1.04800
Cr511      Cr  0.31536436  0.61153377  0.81700243     1.93700
Cr512      Cr  0.31555034  0.53871377  0.86921696     1.93200
Cr513      Cr  0.39451704  0.58518640  0.85184779     1.39100
O514        O  0.34176387  0.57781151  0.84590474    -1.20800
O515        O  0.10933839  0.62197770  0.72799367    -0.83100
O516        O  0.17189584  0.56776028  0.72792440    -0.80100
C517        C  0.19394043  0.53878579  0.71805262     1.00400
O518        O  0.19380439  0.52653015  0.68536831    -0.80200
O519        O  0.11933324  0.49456257  0.65987022    -0.82800
C520        C  0.08258317  0.49484181  0.65070974     1.04900
O521        O  0.06344851  0.52769359  0.64859391    -0.75600
O522        O  0.06604735  0.57488432  0.71221085    -0.75700
C523        C  0.07921874  0.59995938  0.73504143     1.04900
O524        O  0.14230236  0.65828751  0.66404077    -0.83100
O525        O  0.20936634  0.60931709  0.67025486    -0.80100
C526        C  0.21765147  0.59944582  0.63838036     1.00400
O527        O  0.19460060  0.57677302  0.62073032    -0.80200
O528        O  0.12340275  0.54460253  0.59696206    -0.82800
C529        C  0.09932235  0.57222785  0.58675011     1.04900
O530        O  0.08354627  0.59652869  0.60872890    -0.75600
O531        O  0.07756117  0.64526447  0.66786145    -0.75700
C532        C  0.10610770  0.66939389  0.66093729     1.04800
Cr533      Cr  0.15599246  0.61160078  0.69509238     1.93700
Cr534      Cr  0.15579271  0.53864891  0.64299830     1.93200
Cr535      Cr  0.07684499  0.58515521  0.66028498     1.39100
O536        O  0.12959919  0.57780400  0.66624193    -1.20800
O537        O  0.04829997  0.93145934  0.54979017    -0.83100
O538        O  0.00115329  0.93399289  0.61343283    -0.80100
C539        C  0.96831530  0.91481244  0.61135393     1.00400
O540        O  0.96805945  0.87806233  0.60220043    -0.80200
O541        O  0.00008422  0.80362485  0.57670838    -0.82800
C542        C  0.01232025  0.80349465  0.54401864     1.04900
O543        O  0.04125483  0.82558906  0.53411606    -0.75600
O544        O  0.09541024  0.88822016  0.53399242    -0.75700
C545        C  0.07337295  0.91831949  0.52695264     1.04900
O546        O  0.11872754  0.92003223  0.59410275    -0.83100
O547        O  0.07003857  0.91399527  0.65326246    -0.80100
C548        C  0.04575810  0.89820389  0.67526001     1.00400
O549        O  0.01815338  0.87407485  0.66507366    -0.80200
O550        O  0.05038735  0.80290175  0.64131358    -0.82800
C551        C  0.07308925  0.77989102  0.62366188     1.04900
O552        O  0.08290410  0.78818247  0.59177164    -0.75600
O553        O  0.13178199  0.85530825  0.59794276    -0.75700
C554        C  0.14286602  0.89150897  0.60104656     1.04800
Cr555      Cr  0.05861907  0.92067325  0.60171104     1.93700
Cr556      Cr  0.01219743  0.84166196  0.61905534     1.93200
Cr557      Cr  0.08510243  0.84155714  0.56691435     1.39100
O558        O  0.05130493  0.86790850  0.59577445    -1.20800
O559        O  0.04878496  0.59221053  0.96222753    -0.83100
O560        O  0.00162234  0.58953527  0.89860055    -0.80100
C561        C  0.96874992  0.60863311  0.90071477     1.00400
O562        O  0.96842535  0.64537967  0.90986037    -0.80200
O563        O  0.00026654  0.71991086  0.93525055    -0.82800
C564        C  0.01248209  0.72007190  0.96794748     1.04900
O565        O  0.04147089  0.69806570  0.97786391    -0.75600
O566        O  0.09578835  0.63559381  0.97802807    -0.75700
C567        C  0.07383876  0.60541824  0.98506182     1.04900
O568        O  0.11915955  0.60381588  0.91792511    -0.83100
O569        O  0.07044851  0.60969280  0.85874805    -0.80100
C570        C  0.04610697  0.62539357  0.83675204     1.00400
O571        O  0.01843791  0.64942820  0.84694212    -0.80200
O572        O  0.05053200  0.72068258  0.87064197    -0.82800
C573        C  0.07315162  0.74378725  0.88828908     1.04900
O574        O  0.08300815  0.73555389  0.92018346    -0.75600
O575        O  0.13208271  0.66857393  0.91407606    -0.75700
C576        C  0.14324345  0.63239816  0.91100012     1.04800
Cr577      Cr  0.05906098  0.60300437  0.91030639     1.93700
Cr578      Cr  0.01244790  0.68186492  0.89293885     1.93200
Cr579      Cr  0.08536136  0.68221048  0.94508101     1.39100
O580        O  0.05162866  0.65574713  0.91622609    -1.20800
O581        O  0.36164370  0.90173601  0.72815808    -0.83100
O582        O  0.29908129  0.95593123  0.72799837    -0.80100
C583        C  0.27709907  0.98494708  0.71810391     1.00400
O584        O  0.27727095  0.99721096  0.68542492    -0.80200
O585        O  0.35175418  0.02912881  0.66001738    -0.82800
C586        C  0.38850122  0.02884614  0.65086744     1.04900
O587        O  0.40763219  0.99599315  0.64876826    -0.75600
O588        O  0.40495528  0.94882587  0.71240529    -0.75700
C589        C  0.39176102  0.92375275  0.73522787     1.04900
O590        O  0.32875865  0.86541293  0.66417039    -0.83100
O591        O  0.26167714  0.91437470  0.67028878    -0.80100
C592        C  0.25340234  0.92429965  0.63841991     1.00400
O593        O  0.27646916  0.94698728  0.62080165    -0.80200
O594        O  0.34772060  0.97909934  0.59710754    -0.82800
C595        C  0.37179531  0.95146246  0.58692469     1.04900
O596        O  0.38754983  0.92715664  0.60892072    -0.75600
O597        O  0.39349250  0.87843613  0.66808273    -0.75700
C598        C  0.36495754  0.85430454  0.66112914     1.04800
Cr599      Cr  0.31502470  0.91209719  0.69519468     1.93700
Cr600      Cr  0.31529526  0.98507012  0.64310431     1.93200
Cr601      Cr  0.39421193  0.93854065  0.66047598     1.39100
O602        O  0.34145081  0.94589707  0.66637313    -1.20800
O603        O  0.10908024  0.90180956  0.78398558    -0.83100
O604        O  0.17159125  0.95611503  0.78418532    -0.80100
C605        C  0.19369140  0.98502226  0.79413769     1.00400
O606        O  0.19358150  0.99717079  0.82685109    -0.80200
O607        O  0.11911503  0.02914255  0.85222956    -0.82800
C608        C  0.08234973  0.02887368  0.86132758     1.04900
O609        O  0.06316157  0.99603566  0.86337228    -0.75600
O610        O  0.06576320  0.94885485  0.79975320    -0.75700
C611        C  0.07893462  0.92377800  0.77693460     1.04900
O612        O  0.14201153  0.86549131  0.84792498    -0.83100
O613        O  0.20906732  0.91448552  0.84183052    -0.80100
C614        C  0.21727728  0.92421228  0.87376143     1.00400
O615        O  0.19418656  0.94681515  0.89142793    -0.80200
O616        O  0.12299706  0.97907470  0.91510602    -0.82800
C617        C  0.09886973  0.95146217  0.92526551     1.04900
O618        O  0.08312969  0.92716825  0.90325112    -0.75600
O619        O  0.07725744  0.87846403  0.84409361    -0.75700
C620        C  0.10582180  0.85436107  0.85101167     1.04800
Cr621      Cr  0.15570402  0.91220356  0.81693635     1.93700
Cr622      Cr  0.15548160  0.98502621  0.86913610     1.93200
Cr623      Cr  0.07651817  0.93856986  0.85168709     1.39100
O624        O  0.12928192  0.94593110  0.84580296    -1.20800
O625        O  0.56612859  0.44893170  0.71239296    -0.83100
O626        O  0.56348218  0.49612078  0.64876550    -0.80100
C627        C  0.58268287  0.52894957  0.65080848     1.00400
O628        O  0.61945367  0.52919241  0.65989879    -0.80200
O629        O  0.69389691  0.49717480  0.68530707    -0.82800
C630        C  0.69405037  0.48495758  0.71800249     1.04900
O631        O  0.67201461  0.45598572  0.72792392    -0.75600
O632        O  0.60939527  0.40181347  0.72812919    -0.75700
C633        C  0.57929503  0.42383175  0.73520183     1.04900
O634        O  0.57746275  0.37853530  0.66805496    -0.83100
O635        O  0.58338606  0.42725161  0.60889692    -0.80100
C636        C  0.59917548  0.45151484  0.58688240     1.00400
O637        O  0.62332471  0.47910991  0.59703733    -0.80200
O638        O  0.69451386  0.44687030  0.62070475    -0.82800
C639        C  0.71756440  0.42418443  0.63833553     1.04900
O640        O  0.70932716  0.41435522  0.67023253    -0.75600
O641        O  0.64218416  0.36546638  0.66414697    -0.75700
C642        C  0.60597249  0.35438533  0.66110582     1.04800
Cr643      Cr  0.57681291  0.43864547  0.66045703     1.93700
Cr644      Cr  0.65580511  0.48505482  0.64300742     1.93200
Cr645      Cr  0.65599626  0.41214188  0.69515006     1.39100
O646        O  0.62959263  0.44594671  0.66632222    -1.20800
O647        O  0.90526351  0.44864312  0.79979400    -0.83100
O648        O  0.90795644  0.49578976  0.86342013    -0.80100
C649        C  0.88884202  0.52865770  0.86132085     1.00400
O650        O  0.85209279  0.52897509  0.85217174    -0.80200
O651        O  0.77755521  0.49713924  0.82679248    -0.82800
C652        C  0.77741485  0.48496574  0.79408621     1.04900
O653        O  0.79944147  0.45600545  0.78415927    -0.75600
O654        O  0.86186994  0.40165385  0.78398691    -0.75700
C655        C  0.89204708  0.42360211  0.77695864     1.04900
O656        O  0.89364444  0.37824319  0.84409384    -0.83100
O657        O  0.88781909  0.42693664  0.90326350    -0.80100
C658        C  0.87212828  0.45126916  0.92526183     1.00400
O659        O  0.84809272  0.47894289  0.91507779    -0.80200
O660        O  0.77684340  0.44682609  0.89139044    -0.82800
C661        C  0.75371619  0.42423806  0.87373499     1.04900
O662        O  0.76191256  0.41444570  0.84181992    -0.75600
O663        O  0.82887360  0.36534534  0.84791766    -0.75700
C664        C  0.86504569  0.35417328  0.85101859     1.04800
Cr665      Cr  0.89448547  0.43834581  0.85171008     1.93700
Cr666      Cr  0.81562801  0.48494284  0.86909367     1.93200
Cr667      Cr  0.81525983  0.41208494  0.81692533     1.39100
O668        O  0.84174066  0.44578489  0.84579342    -1.20800
O669        O  0.87551425  0.38803618  0.53403806    -0.83100
O670        O  0.92971894  0.32548808  0.53418629    -0.80100
C671        C  0.95870204  0.30346678  0.54408471     1.00400
O672        O  0.97095353  0.30362156  0.57677042    -0.80200
O673        O  0.00289954  0.37810882  0.60221979    -0.82800
C674        C  0.00261408  0.41485878  0.61136749     1.04900
O675        O  0.96975803  0.43398904  0.61345934    -0.75600
O676        O  0.92259529  0.43134313  0.54982169    -0.75700
C677        C  0.89753547  0.41815274  0.52698471     1.04900
O678        O  0.83918353  0.35511028  0.59799671    -0.83100
O679        O  0.88813722  0.28805050  0.59186909    -0.80100
C680        C  0.89800641  0.27978548  0.62375355     1.00400
O681        O  0.92069545  0.30284046  0.64138550    -0.80200
O682        O  0.95285231  0.37406076  0.66510414    -0.82800
C683        C  0.92521931  0.39813665  0.67529079     1.04900
O684        O  0.90091327  0.41389672  0.65329760    -0.75600
O685        O  0.85219276  0.41984862  0.59413344    -0.75700
C686        C  0.82806800  0.39129995  0.60106203     1.04800
Cr687      Cr  0.88587268  0.34140603  0.56698233     1.93700
Cr688      Cr  0.95881764  0.34164828  0.61910160     1.93200
Cr689      Cr  0.91230146  0.42057569  0.60174489     1.39100
O690        O  0.91966049  0.36782023  0.59582718    -1.20800
O691        O  0.87540144  0.13548672  0.97815952    -0.83100
O692        O  0.92971434  0.19799731  0.97796686    -0.80100
C693        C  0.95863914  0.22007922  0.96801925     1.00400
O694        O  0.97078170  0.21997258  0.93530331    -0.80200
O695        O  0.00274885  0.14552101  0.90989430    -0.82800
C696        C  0.00247539  0.10875527  0.90080313     1.04900
O697        O  0.96963543  0.08956627  0.89877499    -0.75600
O698        O  0.92244893  0.09217168  0.96239068    -0.75700
C699        C  0.89736985  0.10534197  0.98520806     1.04900
O700        O  0.83907587  0.16841238  0.91422508    -0.83100
O701        O  0.88807961  0.23546566  0.92032400    -0.80100
C702        C  0.89780718  0.24367105  0.88839387     1.00400
O703        O  0.92040446  0.22058006  0.87072654    -0.80200
O704        O  0.95265666  0.14941735  0.84703453    -0.82800
C705        C  0.92504405  0.12528924  0.83687701     1.04900
O706        O  0.90076568  0.10953051  0.85889346    -0.75600
O707        O  0.85205890  0.10366225  0.91804629    -0.75700
C708        C  0.82795059  0.13222221  0.91113089     1.04800
Cr709      Cr  0.88579729  0.18210666  0.94521288     1.93700
Cr710      Cr  0.95862167  0.18188512  0.89300908     1.93200
Cr711      Cr  0.91216701  0.10292343  0.91045757     1.39100
O712        O  0.91952774  0.15568484  0.91634423    -1.20800
O713        O  0.56578594  0.07500551  0.79998737    -0.83100
O714        O  0.56316268  0.02785141  0.86361868    -0.80100
C715        C  0.58226153  0.99497950  0.86150370     1.00400
O716        O  0.61900656  0.99465400  0.85233958    -0.80200
O717        O  0.69353158  0.02651733  0.82688669    -0.82800
C718        C  0.69366909  0.03873238  0.79418839     1.04900
O719        O  0.67162891  0.06769687  0.78428042    -0.75600
O720        O  0.60915556  0.12200716  0.78415849    -0.75700
C721        C  0.57898470  0.10004469  0.77713833     1.04900
O722        O  0.57743582  0.14538751  0.84428598    -0.83100
O723        O  0.58335336  0.09668006  0.90345465    -0.80100
C724        C  0.59906996  0.07234174  0.92544295     1.00400
O725        O  0.62310329  0.04467711  0.91524105    -0.80200
O726        O  0.69432716  0.07679807  0.89149505    -0.82800
C727        C  0.71741128  0.09942796  0.87383745     1.04900
O728        O  0.70917193  0.10924252  0.84193437    -0.75600
O729        O  0.64220375  0.15829290  0.84808978    -0.75700
C730        C  0.60603422  0.16945821  0.85120166     1.04800
Cr731      Cr  0.57662273  0.08528897  0.85190182     1.93700
Cr732      Cr  0.65550691  0.03868983  0.86922471     1.93200
Cr733      Cr  0.65580372  0.11158350  0.81707256     1.39100
O734        O  0.62936275  0.07785597  0.84594704    -1.20800
O735        O  0.90502459  0.07472598  0.71236340    -0.83100
O736        O  0.90759092  0.02755815  0.64873328    -0.80100
C737        C  0.88840537  0.99472214  0.65079500     1.00400
O738        O  0.85164761  0.99446621  0.65992600    -0.80200
O739        O  0.77720933  0.02648641  0.68540188    -0.82800
C740        C  0.77707501  0.03871426  0.71809434     1.04900
O741        O  0.79914899  0.06766451  0.72800024    -0.75600
O742        O  0.86177511  0.12183565  0.72813882    -0.75700
C743        C  0.89187714  0.09980677  0.73518990     1.04900
O744        O  0.89361560  0.14513467  0.66803259    -0.83100
O745        O  0.88761298  0.09642990  0.60887993    -0.80100
C746        C  0.87181479  0.07215803  0.58687819     1.00400
O747        O  0.84768080  0.04455742  0.59705765    -0.80200
O748        O  0.77651917  0.07679353  0.62079335    -0.82800
C749        C  0.75349573  0.09948457  0.63843796     1.04900
O750        O  0.76176494  0.10929788  0.67033206    -0.75600
O751        O  0.82888863  0.15819266  0.66417918    -0.75700
C752        C  0.86509379  0.16927655  0.66109056     1.04800
Cr753      Cr  0.89426416  0.08502634  0.66043686     1.93700
Cr754      Cr  0.81525812  0.03860442  0.64306491     1.93200
Cr755      Cr  0.81512743  0.11151143  0.69520375     1.39100
O756        O  0.84149548  0.07771269  0.66635453    -1.20800
O757        O  0.59576312  0.38825160  0.97816472    -0.83100
O758        O  0.54151707  0.32568578  0.97803540    -0.80100
C759        C  0.51255335  0.30363440  0.96811564     1.00400
O760        O  0.50036686  0.30375279  0.93540819    -0.80200
O761        O  0.46840660  0.37818838  0.90991866    -0.82800
C762        C  0.46867926  0.41494609  0.90079361     1.04900
O763        O  0.50152436  0.43411774  0.89872581    -0.75600
O764        O  0.54867743  0.43152169  0.96235967    -0.75700
C765        C  0.57374360  0.41836079  0.98519870     1.04900
O766        O  0.63208816  0.35530841  0.91423827    -0.83100
O767        O  0.58312696  0.28823815  0.92040259    -0.80100
C768        C  0.57333526  0.27998933  0.88849797     1.00400
O769        O  0.55070850  0.30305410  0.87082451    -0.80200
O770        O  0.51850620  0.37421491  0.84706207    -0.82800
C771        C  0.54612680  0.39832845  0.83688867     1.04900
O772        O  0.57040257  0.41411069  0.85889657    -0.75600
O773        O  0.61909668  0.42005065  0.91805909    -0.75700
C774        C  0.64320393  0.39149903  0.91112746     1.04800
Cr775      Cr  0.58539531  0.34160535  0.94525209     1.93700
Cr776      Cr  0.51252448  0.34179182  0.89307059     1.93200
Cr777      Cr  0.55898796  0.42075960  0.91044546     1.39100
O778        O  0.55163540  0.36800062  0.91637477    -1.20800
O779        O  0.59553617  0.13563068  0.53417420    -0.83100
O780        O  0.54126246  0.19813101  0.53430733    -0.80100
C781        C  0.51233622  0.22021572  0.54421174     1.00400
O782        O  0.50011243  0.22007554  0.57690524    -0.80200
O783        O  0.46814898  0.14556885  0.60234246    -0.82800
C784        C  0.46843537  0.10881263  0.61147884     1.04900
O785        O  0.50128823  0.08967189  0.61356651    -0.75600
O786        O  0.54848985  0.09229093  0.54995695    -0.75700
C787        C  0.57356229  0.10547802  0.52713198     1.04900
O788        O  0.63185095  0.16858574  0.59811257    -0.83100
O789        O  0.58284565  0.23561409  0.59197229    -0.80100
C790        C  0.57303330  0.24385784  0.62387135     1.00400
O791        O  0.55039038  0.22078105  0.64152545    -0.80200
O792        O  0.51818622  0.14957475  0.66524224    -0.82800
C793        C  0.54581533  0.12549352  0.67543981     1.04900
O794        O  0.57012454  0.10974587  0.65345137    -0.70800
O795        O  0.61885957  0.10383533  0.59430681    -0.75700
C796        C  0.64297779  0.13240013  0.60120347     1.04800
Cr797      Cr  0.58513981  0.18225592  0.56710094     1.93700
Cr798      Cr  0.51223780  0.18200906  0.61923603     1.93200
Cr799      Cr  0.55875132  0.10307894  0.60188763     1.39100
O800        O  0.55138013  0.15583219  0.59595896    -1.20800
C801        C  0.49751337  0.27462150  0.99426440    -0.11000
C802        C  0.49742782  0.24929993  0.51807113    -0.12600
C803        C  0.71627203  0.11304703  0.62286596    -0.11000
C804        C  0.68345572  0.12308197  0.61206372    -0.12600
C805        C  0.58682815  0.24274468  0.87294290    -0.11000
C806        C  0.59678254  0.20992391  0.86211169    -0.12600
C807        C  0.72270251  0.02374891  0.76804361    -0.11000
C808        C  0.74802179  0.02374714  0.74423892    -0.12600
C809        C  0.58859157  0.07645177  0.96276618    -0.11000
C810        C  0.57939883  0.08607020  0.99301309    -0.12600
C811        C  0.55956579  0.10585270  0.74301681    -0.11000
C812        C  0.54993230  0.11501758  0.71276424    -0.12600
C813        C  0.89151588  0.08591782  0.51932033    -0.11000
C814        C  0.88230640  0.07628054  0.54956008    -0.12600
C815        C  0.92091116  0.11477538  0.79956605    -0.11000
C816        C  0.91128264  0.10559432  0.76931800    -0.12600
C817        C  0.78748353  0.12290266  0.90023966    -0.11000
C818        C  0.75466197  0.11291561  0.88941109    -0.12600
C819        C  0.87447360  0.20972942  0.65017625    -0.11000
C820        C  0.88449775  0.24253938  0.63933739    -0.12600
C821        C  0.97365543  0.24912275  0.99414048    -0.11000
C822        C  0.97367907  0.27444062  0.51794082    -0.12600
C823        C  0.91146116  0.41777190  0.74284974    -0.11000
C824        C  0.92109984  0.40860018  0.71260820    -0.12600
C825        C  0.89176997  0.43752377  0.99283896    -0.11000
C826        C  0.88262007  0.44713706  0.96257915    -0.12600
C827        C  0.87430379  0.31370453  0.86194213    -0.11000
C828        C  0.88427945  0.28089502  0.87280123    -0.12600
C829        C  0.71646702  0.41078186  0.88932799    -0.11000
C830        C  0.68365415  0.40082174  0.90019238    -0.12600
C831        C  0.75478521  0.41065163  0.62274576    -0.11000
C832        C  0.78759878  0.40063392  0.61193162    -0.12600
C833        C  0.72307938  0.49997399  0.74413903    -0.11000
C834        C  0.74838929  0.49998422  0.76795184    -0.12600
C835        C  0.58654298  0.28110584  0.63943887    -0.11000
C836        C  0.59657382  0.31392491  0.65024253    -0.12600
C837        C  0.57951868  0.43775806  0.51932256    -0.11000
C838        C  0.58867849  0.44738405  0.54957235    -0.12600
C839        C  0.55990476  0.41800516  0.76932832    -0.11000
C840        C  0.55026780  0.40881288  0.79957112    -0.12600
C841        C  0.03861324  0.08844768  0.88813686    -0.11000
C842        C  0.06204414  0.06501471  0.87398662    -0.12600
C843        C  0.43229251  0.08845675  0.62411343    -0.11000
C844        C  0.40884769  0.06499408  0.63823185    -0.12600
C845        C  0.24809593  0.99996796  0.74424421    -0.11000
C846        C  0.22276609  0.99999656  0.76803142    -0.12600
C847        C  0.93262710  0.58825173  0.88808984    -0.11000
C848        C  0.90919721  0.56478537  0.87396681    -0.12600
C849        C  0.08657449  0.78105733  0.87271643    -0.11000
C850        C  0.09651523  0.81389263  0.86189475    -0.12600
C851        C  0.90871672  0.95856707  0.63814226    -0.11000
C852        C  0.93215919  0.93512082  0.62401045    -0.12600
C853        C  0.18331481  0.90087506  0.61198281    -0.11000
C854        C  0.21613375  0.91085383  0.62283567    -0.12600
C855        C  0.99739699  0.77441747  0.51787828    -0.11000
C856        C  0.99745307  0.74909028  0.99408198    -0.12600
C857        C  0.04987397  0.90870371  0.71257943    -0.11000
C858        C  0.05950983  0.91792255  0.74281910    -0.12600
C859        C  0.08833333  0.94734856  0.96257450    -0.11000
C860        C  0.07914542  0.93772951  0.49282367    -0.12600
C861        C  0.03876401  0.43522090  0.62399587    -0.11000
C862        C  0.06222498  0.45868643  0.63809545    -0.12600
C863        C  0.05983047  0.60574311  0.76917536    -0.11000
C864        C  0.05022144  0.61490670  0.79943112    -0.12600
C865        C  0.08886642  0.57634897  0.54942139    -0.11000
C866        C  0.07968430  0.58599656  0.51917661    -0.12600
C867        C  0.08667923  0.74266343  0.63922511    -0.11000
C868        C  0.09675357  0.70985869  0.65003772    -0.12600
C869        C  0.40905653  0.45872207  0.87407236    -0.11000
C870        C  0.43252367  0.43527218  0.88816736    -0.12600
C871        C  0.21652968  0.61308330  0.88931659    -0.11000
C872        C  0.18371689  0.62310877  0.90012262    -0.12600
C873        C  0.24829303  0.52379775  0.76803257    -0.11000
C874        C  0.22296754  0.52381897  0.74422487    -0.12600
C875        C  0.56236958  0.56511805  0.63818782    -0.11000
C876        C  0.53892281  0.58859153  0.62409316    -0.12600
C877        C  0.39181937  0.58607381  0.49296898    -0.11000
C878        C  0.38260875  0.57643173  0.96272743    -0.12600
C879        C  0.41158012  0.60575877  0.74297395    -0.11000
C880        C  0.42121300  0.61495097  0.71273038    -0.12600
C881        C  0.25491676  0.61292668  0.62283318    -0.11000
C882        C  0.28774462  0.62292474  0.61203174    -0.12600
C883        C  0.38441016  0.78103635  0.63946357    -0.11000
C884        C  0.37432753  0.81383851  0.65026337    -0.12600
C885        C  0.56187902  0.95885750  0.87413813    -0.11000
C886        C  0.53840926  0.93542471  0.88825650    -0.12600
C887        C  0.38440107  0.74266903  0.87292044    -0.11000
C888        C  0.37447303  0.70984353  0.86206702    -0.12600
C889        C  0.47370743  0.74936859  0.51812415    -0.11000
C890        C  0.47361637  0.77468272  0.99431517    -0.12600
C891        C  0.25450145  0.91066183  0.88935657    -0.11000
C892        C  0.28730273  0.90064365  0.90021906    -0.12600
C893        C  0.41113158  0.91796389  0.76937233    -0.11000
C894        C  0.42074778  0.90880256  0.79962925    -0.12600
C895        C  0.39141634  0.93769469  0.51936251    -0.11000
C896        C  0.38225990  0.94733547  0.54960785    -0.12600
loop_ 
_geom_bond_atom_site_label_1 
_geom_bond_atom_site_label_2 
_geom_bond_distance 
_geom_bond_site_symmetry_2 
_ccdc_geom_bond_type 
O1          Cr19   1.987       .  S
O1            C9   1.263       .  A
O2          Cr19   2.000       .  S
O2            C3   1.261       .  A
C3            O4   1.262       .  A
C3          C438   1.450       .  S
O4          Cr20   1.993       .  S
O5          Cr20   2.051       .  S
O5            C6   1.278       .  A
C6            O7   1.259       .  A
C6          C442   1.452       .  S
O7          Cr21   1.965       .  S
O8          Cr21   1.997       .  S
O8            C9   1.262       .  A
C9          C895   1.431       .  S
O10         Cr19   2.009       .  S
O10          C18   1.263       .  A
O11         Cr19   1.960       .  S
O11          C12   1.258       .  A
C12          O13   1.270       .  A
C12         C446   1.433       .  S
O13         Cr20   2.024       .  S
O14         Cr20   1.980       .  S
O14          C15   1.254       .  A
C15          O16   1.256       .  A
C15         C439   1.432       .  S
O16         Cr21   1.993       .  S
O17         Cr21   1.979       .  S
O17          C18   1.258       .  A
C18         C444   1.432       .  S
Cr19         O22   1.776       .  S
Cr20         O22   1.781       .  S
Cr21         O22   1.777       .  S
O23         Cr41   1.987       .  S
O23          C31   1.263       .  A
O24         Cr41   2.000       .  S
O24          C25   1.261       .  A
C25          O26   1.263       .  A
C25         C428   1.450       .  S
O26         Cr42   1.994       .  S
O27         Cr42   2.051       .  S
O27          C28   1.278       .  A
C28          O29   1.259       .  A
C28         C441   1.452       .  S
O29         Cr43   1.965       .  S
O30         Cr43   1.997       .  S
O30          C31   1.262       .  A
C31         C429   1.432   1_554  S
O32         Cr41   2.009       .  S
O32          C40   1.263       .  A
O33         Cr41   1.960       .  S
O33          C34   1.258       .  A
C34          O35   1.270       .  A
C34         C432   1.433       .  S
O35         Cr42   2.024       .  S
O36         Cr42   1.981       .  S
O36          C37   1.254       .  A
C37          O38   1.256       .  A
C37         C435   1.433       .  S
O38         Cr43   1.993       .  S
O39         Cr43   1.978       .  S
O39          C40   1.258       .  A
C40         C434   1.432       .  S
Cr41         O44   1.776       .  S
Cr42         O44   1.781       .  S
Cr43         O44   1.777       .  S
O45         Cr63   1.997       .  S
O45          C53   1.262       .  A
O46         Cr63   1.965       .  S
O46          C47   1.259       .  A
C47          O48   1.278       .  A
C47         C425   1.452       .  S
O48         Cr64   2.052       .  S
O49         Cr64   1.993       .  S
O49          C50   1.263       .  A
C50          O51   1.261       .  A
C50         C421   1.450       .  S
O51         Cr65   2.000       .  S
O52         Cr65   1.987       .  S
O52          C53   1.263       .  A
C53         C431   1.431       .  S
O54         Cr63   1.978       .  S
O54          C62   1.258       .  A
O55         Cr63   1.993       .  S
O55          C56   1.256       .  A
C56          O57   1.254       .  A
C56         C423   1.432       .  S
O57         Cr64   1.980       .  S
O58         Cr64   2.025       .  S
O58          C59   1.270       .  A
C59          O60   1.258       .  A
C59         C430   1.433       .  S
O60         Cr65   1.960       .  S
O61         Cr65   2.009       .  S
O61          C62   1.263       .  A
C62         C440   1.432       .  S
Cr63         O66   1.777       .  S
Cr64         O66   1.781       .  S
Cr65         O66   1.776       .  S
O67         Cr85   1.997       .  S
O67          C75   1.262       .  A
O68         Cr85   1.965       .  S
O68          C69   1.259       .  A
C69          O70   1.278       .  A
C69         C426   1.452       .  S
O70         Cr86   2.052       .  S
O71         Cr86   1.994       .  S
O71          C72   1.263       .  A
C72          O73   1.261       .  A
C72         C414   1.450       .  S
O73         Cr87   2.000       .  S
O74         Cr87   1.987       .  S
O74          C75   1.263       .  A
C75         C415   1.432       .  S
O76         Cr85   1.979       .  S
O76          C84   1.258       .  A
O77         Cr85   1.993       .  S
O77          C78   1.256       .  A
C78          O79   1.254       .  A
C78         C433   1.432       .  S
O79         Cr86   1.980       .  S
O80         Cr86   2.025       .  S
O80          C81   1.270       .  A
C81          O82   1.258       .  A
C81         C417   1.433       .  S
O82         Cr87   1.960       .  S
O83         Cr87   2.009       .  S
O83          C84   1.263       .  A
C84         C420   1.433       .  S
Cr85         O88   1.777       .  S
Cr86         O88   1.781       .  S
Cr87         O88   1.776       .  S
O89        Cr107   1.987       .  S
O89          C97   1.263       .  A
O90        Cr107   2.000       .  S
O90          C91   1.261   1_455  A
C91          O92   1.263       .  A
C91         C404   1.450       .  S
O92        Cr108   1.994   1_655  S
O93        Cr108   2.052       .  S
O93          C94   1.278       .  A
C94          O95   1.259       .  A
C94         C407   1.452   1_455  S
O95        Cr109   1.965       .  S
O96        Cr109   1.997       .  S
O96          C97   1.262       .  A
C97         C412   1.432   1_554  S
O98        Cr107   2.009       .  S
O98         C106   1.263       .  A
O99        Cr107   1.960       .  S
O99         C100   1.258       .  A
C100        O101   1.270       .  A
C100        C409   1.433       .  S
O101       Cr108   2.025       .  S
O102       Cr108   1.981       .  S
O102        C103   1.254       .  A
C103        O104   1.256       .  A
C103        C419   1.433       .  S
O104       Cr109   1.993       .  S
O105       Cr109   1.979       .  S
O105        C106   1.258       .  A
C106        C405   1.432       .  S
Cr107       O110   1.776       .  S
Cr108       O110   1.781       .  S
Cr109       O110   1.777       .  S
O111       Cr129   1.987       .  S
O111        C119   1.263       .  A
O112       Cr129   2.000       .  S
O112        C113   1.261   1_455  A
C113        O114   1.262       .  A
C113        C399   1.450       .  S
O114       Cr130   1.993   1_655  S
O115       Cr130   2.051       .  S
O115        C116   1.278       .  A
C116        O117   1.259       .  A
C116        C408   1.452   1_455  S
O117       Cr131   1.965       .  S
O118       Cr131   1.997       .  S
O118        C119   1.262       .  A
C119        C866   1.432       .  S
O120       Cr129   2.009       .  S
O120        C128   1.263       .  A
O121       Cr129   1.960       .  S
O121        C122   1.258       .  A
C122        O123   1.270       .  A
C122        C416   1.433       .  S
O123       Cr130   2.025       .  S
O124       Cr130   1.980       .  S
O124        C125   1.254       .  A
C125        O126   1.256       .  A
C125        C401   1.432       .  S
O126       Cr131   1.993       .  S
O127       Cr131   1.979       .  S
O127        C128   1.258       .  A
C128        C424   1.432       .  S
Cr129       O132   1.776       .  S
Cr130       O132   1.781       .  S
Cr131       O132   1.777       .  S
O133       Cr151   1.997       .  S
O133        C141   1.262       .  A
O134       Cr151   1.965       .  S
O134        C135   1.259       .  A
C135        O136   1.277       .  A
C135        C397   1.452       .  S
O136       Cr152   2.051       .  S
O137       Cr152   1.993   1_545  S
O137        C138   1.262       .  A
C138        O139   1.261   1_545  A
C138        C396   1.450       .  S
O139       Cr153   2.000       .  S
O140       Cr153   1.987       .  S
O140        C141   1.263       .  A
C141        C445   1.431       .  S
O142       Cr151   1.979       .  S
O142        C150   1.258       .  A
O143       Cr151   1.993       .  S
O143        C144   1.256       .  A
C144        O145   1.254       .  A
C144        C406   1.433       .  S
O145       Cr152   1.980       .  S
O146       Cr152   2.024       .  S
O146        C147   1.270       .  A
C147        O148   1.258       .  A
C147        C448   1.432       .  S
O148       Cr153   1.960       .  S
O149       Cr153   2.009       .  S
O149        C150   1.263       .  A
C150        C436   1.432       .  S
Cr151       O154   1.777       .  S
Cr152       O154   1.781       .  S
Cr153       O154   1.776       .  S
O155       Cr173   1.997       .  S
O155        C163   1.262       .  A
O156       Cr173   1.965       .  S
O156        C157   1.259       .  A
C157        O158   1.278       .  A
C157        C398   1.452       .  S
O158       Cr174   2.051       .  S
O159       Cr174   1.993   1_545  S
O159        C160   1.263       .  A
C160        O161   1.261   1_545  A
C160        C394   1.450       .  S
O161       Cr175   2.000       .  S
O162       Cr175   1.987       .  S
O162        C163   1.263       .  A
C163        C410   1.432       .  S
O164       Cr173   1.978       .  S
O164        C172   1.258       .  A
O165       Cr173   1.994       .  S
O165        C166   1.256       .  A
C166        O167   1.254       .  A
C166        C443   1.433       .  S
O167       Cr174   1.980       .  S
O168       Cr174   2.024       .  S
O168        C169   1.270       .  A
C169        O170   1.258       .  A
C169        C411   1.433       .  S
O170       Cr175   1.960       .  S
O171       Cr175   2.009       .  S
O171        C172   1.263       .  A
C172        C402   1.432       .  S
Cr173       O176   1.777       .  S
Cr174       O176   1.781       .  S
Cr175       O176   1.776       .  S
O177       Cr195   1.987       .  S
O177        C185   1.263       .  A
O178       Cr195   2.000       .  S
O178        C179   1.261       .  A
C179        O180   1.263       .  A
C179        C427   1.450       .  S
O180       Cr196   1.993       .  S
O181       Cr196   2.051       .  S
O181        C182   1.278       .  A
C182        O183   1.259       .  A
C182        C385   1.452       .  S
O183       Cr197   1.965       .  S
O184       Cr197   1.997       .  S
O184        C185   1.262       .  A
C185        C391   1.431       .  S
O186       Cr195   2.009       .  S
O186        C194   1.263       .  A
O187       Cr195   1.960       .  S
O187        C188   1.258       .  A
C188        O189   1.270       .  A
C188        C390   1.432       .  S
O189       Cr196   2.024       .  S
O190       Cr196   1.980       .  S
O190        C191   1.254       .  A
C191        O192   1.256       .  A
C191        C383   1.432       .  S
O192       Cr197   1.993       .  S
O193       Cr197   1.979       .  S
O193        C194   1.258       .  A
C194        C388   1.432       .  S
Cr195       O198   1.776       .  S
Cr196       O198   1.781       .  S
Cr197       O198   1.777       .  S
O199       Cr217   1.987       .  S
O199        C207   1.263       .  A
O200       Cr217   2.000       .  S
O200        C201   1.261       .  A
C201        O202   1.262       .  A
C201        C400   1.450       .  S
O202       Cr218   1.993       .  S
O203       Cr218   2.051       .  S
O203        C204   1.278       .  A
C204        O205   1.259       .  A
C204        C386   1.452       .  S
O205       Cr219   1.965       .  S
O206       Cr219   1.997       .  S
O206        C207   1.262       .  A
C207        C375   1.431       .  S
O208       Cr217   2.009       .  S
O208        C216   1.263       .  A
O209       Cr217   1.960       .  S
O209        C210   1.258       .  A
C210        O211   1.270       .  A
C210        C378   1.433       .  S
O211       Cr218   2.024       .  S
O212       Cr218   1.980       .  S
O212        C213   1.254       .  A
C213        O214   1.256       .  A
C213        C381   1.432       .  S
O214       Cr219   1.994       .  S
O215       Cr219   1.979       .  S
O215        C216   1.258       .  A
C216        C379   1.432       .  S
Cr217       O220   1.776       .  S
Cr218       O220   1.781       .  S
Cr219       O220   1.777       .  S
O221       Cr239   1.997       .  S
O221        C229   1.262       .  A
O222       Cr239   1.965       .  S
O222        C223   1.259       .  A
C223        O224   1.278       .  A
C223        C374   1.452       .  S
O224       Cr240   2.051       .  S
O225       Cr240   1.994   1_455  S
O225        C226   1.263       .  A
C226        O227   1.261   1_455  A
C226        C413   1.450       .  S
O227       Cr241   2.000       .  S
O228       Cr241   1.987       .  S
O228        C229   1.263       .  A
C229        C825   1.431   1_554  S
O230       Cr239   1.979       .  S
O230        C238   1.258       .  A
O231       Cr239   1.993       .  S
O231        C232   1.256       .  A
C232        O233   1.254       .  A
C232        C372   1.433       .  S
O233       Cr240   1.980       .  S
O234       Cr240   2.024       .  S
O234        C235   1.270       .  A
C235        O236   1.258       .  A
C235        C376   1.432       .  S
O236       Cr241   1.960       .  S
O237       Cr241   2.009       .  S
O237        C238   1.263       .  A
C238        C384   1.432       .  S
Cr239       O242   1.777       .  S
Cr240       O242   1.781       .  S
Cr241       O242   1.776       .  S
O243       Cr261   1.997       .  S
O243        C251   1.262       .  A
O244       Cr261   1.965       .  S
O244        C245   1.259       .  A
C245        O246   1.278       .  A
C245        C373   1.452       .  S
O246       Cr262   2.051       .  S
O247       Cr262   1.993   1_455  S
O247        C248   1.263       .  A
C248        O249   1.261   1_455  A
C248        C393   1.450       .  S
O249       Cr263   2.000       .  S
O250       Cr263   1.987       .  S
O250        C251   1.263       .  A
C251        C813   1.432       .  S
O252       Cr261   1.978       .  S
O252        C260   1.258       .  A
O253       Cr261   1.994       .  S
O253        C254   1.256       .  A
C254        O255   1.254       .  A
C254        C380   1.432       .  S
O255       Cr262   1.980       .  S
O256       Cr262   2.024       .  S
O256        C257   1.270       .  A
C257        O258   1.258       .  A
C257        C367   1.433       .  S
O258       Cr263   1.960       .  S
O259       Cr263   2.009       .  S
O259        C260   1.263       .  A
C260        C369   1.432       .  S
Cr261       O264   1.777       .  S
Cr262       O264   1.781       .  S
Cr263       O264   1.776       .  S
O265       Cr283   1.987       .  S
O265        C273   1.263       .  A
O266       Cr283   2.000       .  S
O266        C267   1.261   1_545  A
C267        O268   1.263       .  A
C267        C437   1.450       .  S
O268       Cr284   1.993   1_565  S
O269       Cr284   2.052       .  S
O269        C270   1.278       .  A
C270        O271   1.259       .  A
C270        C359   1.452       .  S
O271       Cr285   1.965       .  S
O272       Cr285   1.997       .  S
O272        C273   1.262       .  A
C273        C363   1.432       .  S
O274       Cr283   2.009       .  S
O274        C282   1.263       .  A
O275       Cr283   1.960       .  S
O275        C276   1.258       .  A
C276        O277   1.270       .  A
C276        C361   1.433       .  S
O277       Cr284   2.025       .  S
O278       Cr284   1.980       .  S
O278        C279   1.254       .  A
C279        O280   1.256       .  A
C279        C370   1.432       .  S
O280       Cr285   1.993       .  S
O281       Cr285   1.978       .  S
O281        C282   1.258       .  A
C282        C358   1.432       .  S
Cr283       O286   1.776       .  S
Cr284       O286   1.781       .  S
Cr285       O286   1.777       .  S
O287       Cr305   1.987       .  S
O287        C295   1.263       .  A
O288       Cr305   2.000       .  S
O288        C289   1.261   1_545  A
C289        O290   1.263       .  A
C289        C403   1.450       .  S
O290       Cr306   1.994   1_565  S
O291       Cr306   2.052       .  S
O291        C292   1.278       .  A
C292        O293   1.259       .  A
C292        C360   1.452       .  S
O293       Cr307   1.965       .  S
O294       Cr307   1.997       .  S
O294        C295   1.262       .  A
C295        C368   1.431       .  S
O296       Cr305   2.009       .  S
O296        C304   1.263       .  A
O297       Cr305   1.960       .  S
O297        C298   1.258       .  A
C298        O299   1.270       .  A
C298        C366   1.433       .  S
O299       Cr306   2.024       .  S
O300       Cr306   1.980       .  S
O300        C301   1.254       .  A
C301        O302   1.256       .  A
C301        C355   1.432       .  S
O302       Cr307   1.993       .  S
O303       Cr307   1.979       .  S
O303        C304   1.258       .  A
C304        C371   1.432       .  S
Cr305       O308   1.776       .  S
Cr306       O308   1.781       .  S
Cr307       O308   1.777       .  S
O309       Cr327   1.997       .  S
O309        C317   1.262       .  A
O310       Cr327   1.965       .  S
O310        C311   1.259       .  A
C311        O312   1.278       .  A
C311        C353   1.452       .  S
O312       Cr328   2.051       .  S
O313       Cr328   1.993       .  S
O313        C314   1.263       .  A
C314        O315   1.261       .  A
C314        C422   1.450       .  S
O315       Cr329   2.000       .  S
O316       Cr329   1.987       .  S
O316        C317   1.263       .  A
C317        C837   1.431       .  S
O318       Cr327   1.979       .  S
O318        C326   1.258       .  A
O319       Cr327   1.993       .  S
O319        C320   1.256       .  A
C320        O321   1.254       .  A
C320        C357   1.432       .  S
O321       Cr328   1.980       .  S
O322       Cr328   2.024       .  S
O322        C323   1.270       .  A
C323        O324   1.258       .  A
C323        C392   1.433       .  S
O324       Cr329   1.960       .  S
O325       Cr329   2.009       .  S
O325        C326   1.263       .  A
C326        C382   1.432       .  S
Cr327       O330   1.777       .  S
Cr328       O330   1.781       .  S
Cr329       O330   1.776       .  S
O331       Cr349   1.997       .  S
O331        C339   1.262       .  A
O332       Cr349   1.965       .  S
O332        C333   1.259       .  A
C333        O334   1.278       .  A
C333        C354   1.452       .  S
O334       Cr350   2.052       .  S
O335       Cr350   1.993       .  S
O335        C336   1.263       .  A
C336        O337   1.261       .  A
C336        C395   1.450       .  S
O337       Cr351   2.000       .  S
O338       Cr351   1.987       .  S
O338        C339   1.263       .  A
C339        C810   1.432   1_554  S
O340       Cr349   1.979       .  S
O340        C348   1.258       .  A
O341       Cr349   1.993       .  S
O341        C342   1.256       .  A
C342        O343   1.254       .  A
C342        C387   1.432       .  S
O343       Cr350   1.980       .  S
O344       Cr350   2.024       .  S
O344        C345   1.270       .  A
C345        O346   1.258       .  A
C345        C364   1.433       .  S
O346       Cr351   1.960       .  S
O347       Cr351   2.009       .  S
O347        C348   1.263       .  A
C348        C356   1.432       .  S
Cr349       O352   1.777       .  S
Cr350       O352   1.781       .  S
Cr351       O352   1.776       .  S
C353        C802   1.217       .  T
C354        C801   1.217   1_554  T
C355        C356   1.204       .  T
C357        C358   1.204       .  T
C359        C360   1.217       .  T
C361        C362   1.205       .  T
C362        C787   1.432       .  S
C363        C364   1.205       .  T
C365        C699   1.432   1_554  S
C365        C366   1.205       .  T
C367        C368   1.204       .  T
C369        C370   1.204       .  T
C371        C372   1.204       .  T
C373        C822   1.217       .  T
C374        C821   1.217   1_554  T
C375        C376   1.204       .  T
C377        C677   1.431       .  S
C377        C378   1.204       .  T
C379        C380   1.204       .  T
C381        C382   1.204       .  T
C383        C384   1.204       .  T
C385        C386   1.217       .  T
C387        C388   1.204       .  T
C389        C765   1.431   1_554  S
C389        C390   1.204       .  T
C391        C392   1.204       .  T
C393        C394   1.216       .  T
C395        C396   1.216       .  T
C397        C398   1.217       .  T
C399        C400   1.216       .  T
C401        C402   1.204       .  T
C403        C404   1.216       .  T
C405        C406   1.204       .  T
C407        C856   1.217   1_554  T
C408        C855   1.217       .  T
C409        C410   1.205       .  T
C411        C860   1.205       .  T
C412        C859   1.205       .  T
C413        C414   1.216       .  T
C415        C416   1.205       .  T
C417        C418   1.205       .  T
C418        C567   1.432   1_554  S
C419        C420   1.204       .  T
C421        C422   1.216       .  T
C423        C424   1.204       .  T
C425        C426   1.217       .  T
C427        C428   1.216       .  T
C429        C878   1.205       .  T
C430        C877   1.205       .  T
C431        C432   1.204       .  T
C433        C434   1.204       .  T
C435        C436   1.204       .  T
C437        C438   1.216       .  T
C439        C440   1.204       .  T
C441        C890   1.217   1_554  T
C442        C889   1.217       .  T
C443        C444   1.204       .  T
C445        C446   1.205       .  T
C447        C457   1.431   1_554  S
C447        C448   1.204       .  T
O449       Cr467   1.987       .  S
O449        C457   1.263       .  A
O450       Cr467   2.000       .  S
O450        C451   1.261       .  A
C451        O452   1.262       .  A
C451        C886   1.450       .  S
O452       Cr468   1.993       .  S
O453       Cr468   2.051       .  S
O453        C454   1.278       .  A
C454        O455   1.259       .  A
C454        C890   1.452       .  S
O455       Cr469   1.965       .  S
O456       Cr469   1.997       .  S
O456        C457   1.262       .  A
O458       Cr467   2.009       .  S
O458        C466   1.263       .  A
O459       Cr467   1.960       .  S
O459        C460   1.258       .  A
C460        O461   1.270       .  A
C460        C894   1.433       .  S
O461       Cr468   2.024       .  S
O462       Cr468   1.980       .  S
O462        C463   1.254       .  A
C463        O464   1.256       .  A
C463        C887   1.432       .  S
O464       Cr469   1.993       .  S
O465       Cr469   1.979       .  S
O465        C466   1.258       .  A
C466        C892   1.432       .  S
Cr467       O470   1.776       .  S
Cr468       O470   1.781       .  S
Cr469       O470   1.777       .  S
O471       Cr489   1.987       .  S
O471        C479   1.263       .  A
O472       Cr489   2.000       .  S
O472        C473   1.261       .  A
C473        O474   1.263       .  A
C473        C876   1.450       .  S
O474       Cr490   1.994       .  S
O475       Cr490   2.051       .  S
O475        C476   1.278       .  A
C476        O477   1.259       .  A
C476        C889   1.452       .  S
O477       Cr491   1.965       .  S
O478       Cr491   1.997       .  S
O478        C479   1.262       .  A
C479        C877   1.432       .  S
O480       Cr489   2.009       .  S
O480        C488   1.263       .  A
O481       Cr489   1.960       .  S
O481        C482   1.258       .  A
C482        O483   1.270       .  A
C482        C880   1.433       .  S
O483       Cr490   2.024       .  S
O484       Cr490   1.981       .  S
O484        C485   1.254       .  A
C485        O486   1.256       .  A
C485        C883   1.433       .  S
O486       Cr491   1.993       .  S
O487       Cr491   1.978       .  S
O487        C488   1.258       .  A
C488        C882   1.432       .  S
Cr489       O492   1.776       .  S
Cr490       O492   1.781       .  S
Cr491       O492   1.777       .  S
O493       Cr511   1.997       .  S
O493        C501   1.262       .  A
O494       Cr511   1.965       .  S
O494        C495   1.259       .  A
C495        O496   1.278       .  A
C495        C873   1.452       .  S
O496       Cr512   2.052       .  S
O497       Cr512   1.993       .  S
O497        C498   1.263       .  A
C498        O499   1.261       .  A
C498        C869   1.450       .  S
O499       Cr513   2.000       .  S
O500       Cr513   1.987       .  S
O500        C501   1.263       .  A
C501        C879   1.431       .  S
O502       Cr511   1.978       .  S
O502        C510   1.258       .  A
O503       Cr511   1.993       .  S
O503        C504   1.256       .  A
C504        O505   1.254       .  A
C504        C871   1.432       .  S
O505       Cr512   1.980       .  S
O506       Cr512   2.025       .  S
O506        C507   1.270       .  A
C507        O508   1.258       .  A
C507        C878   1.433       .  S
O508       Cr513   1.960       .  S
O509       Cr513   2.009       .  S
O509        C510   1.263       .  A
C510        C888   1.432       .  S
Cr511       O514   1.777       .  S
Cr512       O514   1.781       .  S
Cr513       O514   1.776       .  S
O515       Cr533   1.997       .  S
O515        C523   1.262       .  A
O516       Cr533   1.965       .  S
O516        C517   1.259       .  A
C517        O518   1.278       .  A
C517        C874   1.452       .  S
O518       Cr534   2.052       .  S
O519       Cr534   1.994       .  S
O519        C520   1.263       .  A
C520        O521   1.261       .  A
C520        C862   1.450       .  S
O521       Cr535   2.000       .  S
O522       Cr535   1.987       .  S
O522        C523   1.263       .  A
C523        C863   1.432       .  S
O524       Cr533   1.979       .  S
O524        C532   1.258       .  A
O525       Cr533   1.993       .  S
O525        C526   1.256       .  A
C526        O527   1.254       .  A
C526        C881   1.432       .  S
O527       Cr534   1.980       .  S
O528       Cr534   2.025       .  S
O528        C529   1.270       .  A
C529        O530   1.258       .  A
C529        C865   1.433       .  S
O530       Cr535   1.960       .  S
O531       Cr535   2.009       .  S
O531        C532   1.263       .  A
C532        C868   1.433       .  S
Cr533       O536   1.777       .  S
Cr534       O536   1.781       .  S
Cr535       O536   1.776       .  S
O537       Cr555   1.987       .  S
O537        C545   1.263       .  A
O538       Cr555   2.000       .  S
O538        C539   1.261   1_455  A
C539        O540   1.263       .  A
C539        C852   1.450       .  S
O540       Cr556   1.994   1_655  S
O541       Cr556   2.052       .  S
O541        C542   1.278       .  A
C542        O543   1.259       .  A
C542        C855   1.452   1_455  S
O543       Cr557   1.965       .  S
O544       Cr557   1.997       .  S
O544        C545   1.262       .  A
C545        C860   1.432       .  S
O546       Cr555   2.009       .  S
O546        C554   1.263       .  A
O547       Cr555   1.960       .  S
O547        C548   1.258       .  A
C548        O549   1.270       .  A
C548        C857   1.433       .  S
O549       Cr556   2.025       .  S
O550       Cr556   1.981       .  S
O550        C551   1.254       .  A
C551        O552   1.256       .  A
C551        C867   1.433       .  S
O552       Cr557   1.993       .  S
O553       Cr557   1.979       .  S
O553        C554   1.258       .  A
C554        C853   1.432       .  S
Cr555       O558   1.776       .  S
Cr556       O558   1.781       .  S
Cr557       O558   1.777       .  S
O559       Cr577   1.987       .  S
O559        C567   1.263       .  A
O560       Cr577   2.000       .  S
O560        C561   1.261   1_455  A
C561        O562   1.262       .  A
C561        C847   1.450       .  S
O562       Cr578   1.993   1_655  S
O563       Cr578   2.051       .  S
O563        C564   1.278       .  A
C564        O565   1.259       .  A
C564        C856   1.452   1_455  S
O565       Cr579   1.965       .  S
O566       Cr579   1.997       .  S
O566        C567   1.262       .  A
O568       Cr577   2.009       .  S
O568        C576   1.263       .  A
O569       Cr577   1.960       .  S
O569        C570   1.258       .  A
C570        O571   1.270       .  A
C570        C864   1.433       .  S
O571       Cr578   2.025       .  S
O572       Cr578   1.980       .  S
O572        C573   1.254       .  A
C573        O574   1.256       .  A
C573        C849   1.432       .  S
O574       Cr579   1.993       .  S
O575       Cr579   1.979       .  S
O575        C576   1.258       .  A
C576        C872   1.432       .  S
Cr577       O580   1.776       .  S
Cr578       O580   1.781       .  S
Cr579       O580   1.777       .  S
O581       Cr599   1.997       .  S
O581        C589   1.262       .  A
O582       Cr599   1.965       .  S
O582        C583   1.259       .  A
C583        O584   1.277       .  A
C583        C845   1.452       .  S
O584       Cr600   2.051       .  S
O585       Cr600   1.993   1_545  S
O585        C586   1.262       .  A
C586        O587   1.261   1_545  A
C586        C844   1.450       .  S
O587       Cr601   2.000       .  S
O588       Cr601   1.987       .  S
O588        C589   1.263       .  A
C589        C893   1.431       .  S
O590       Cr599   1.979       .  S
O590        C598   1.258       .  A
O591       Cr599   1.993       .  S
O591        C592   1.256       .  A
C592        O593   1.254       .  A
C592        C854   1.433       .  S
O593       Cr600   1.980       .  S
O594       Cr600   2.024       .  S
O594        C595   1.270       .  A
C595        O596   1.258       .  A
C595        C896   1.432       .  S
O596       Cr601   1.960       .  S
O597       Cr601   2.009       .  S
O597        C598   1.263       .  A
C598        C884   1.432       .  S
Cr599       O602   1.777       .  S
Cr600       O602   1.781       .  S
Cr601       O602   1.776       .  S
O603       Cr621   1.997       .  S
O603        C611   1.262       .  A
O604       Cr621   1.965       .  S
O604        C605   1.259       .  A
C605        O606   1.278       .  A
C605        C846   1.452       .  S
O606       Cr622   2.051       .  S
O607       Cr622   1.993   1_545  S
O607        C608   1.263       .  A
C608        O609   1.261   1_545  A
C608        C842   1.450       .  S
O609       Cr623   2.000       .  S
O610       Cr623   1.987       .  S
O610        C611   1.263       .  A
C611        C858   1.432       .  S
O612       Cr621   1.978       .  S
O612        C620   1.258       .  A
O613       Cr621   1.994       .  S
O613        C614   1.256       .  A
C614        O615   1.254       .  A
C614        C891   1.433       .  S
O615       Cr622   1.980       .  S
O616       Cr622   2.024       .  S
O616        C617   1.270       .  A
C617        O618   1.258       .  A
C617        C859   1.433       .  S
O618       Cr623   1.960       .  S
O619       Cr623   2.009       .  S
O619        C620   1.263       .  A
C620        C850   1.432       .  S
Cr621       O624   1.777       .  S
Cr622       O624   1.781       .  S
Cr623       O624   1.776       .  S
O625       Cr643   1.987       .  S
O625        C633   1.263       .  A
O626       Cr643   2.000       .  S
O626        C627   1.261       .  A
C627        O628   1.263       .  A
C627        C875   1.450       .  S
O628       Cr644   1.993       .  S
O629       Cr644   2.051       .  S
O629        C630   1.278       .  A
C630        O631   1.259       .  A
C630        C833   1.452       .  S
O631       Cr645   1.965       .  S
O632       Cr645   1.997       .  S
O632        C633   1.262       .  A
C633        C839   1.431       .  S
O634       Cr643   2.009       .  S
O634        C642   1.263       .  A
O635       Cr643   1.960       .  S
O635        C636   1.258       .  A
C636        O637   1.270       .  A
C636        C838   1.432       .  S
O637       Cr644   2.024       .  S
O638       Cr644   1.980       .  S
O638        C639   1.254       .  A
C639        O640   1.256       .  A
C639        C831   1.432       .  S
O640       Cr645   1.993       .  S
O641       Cr645   1.979       .  S
O641        C642   1.258       .  A
C642        C836   1.432       .  S
Cr643       O646   1.776       .  S
Cr644       O646   1.781       .  S
Cr645       O646   1.777       .  S
O647       Cr665   1.987       .  S
O647        C655   1.263       .  A
O648       Cr665   2.000       .  S
O648        C649   1.261       .  A
C649        O650   1.262       .  A
C649        C848   1.450       .  S
O650       Cr666   1.993       .  S
O651       Cr666   2.051       .  S
O651        C652   1.278       .  A
C652        O653   1.259       .  A
C652        C834   1.452       .  S
O653       Cr667   1.965       .  S
O654       Cr667   1.997       .  S
O654        C655   1.262       .  A
C655        C823   1.431       .  S
O656       Cr665   2.009       .  S
O656        C664   1.263       .  A
O657       Cr665   1.960       .  S
O657        C658   1.258       .  A
C658        O659   1.270       .  A
C658        C826   1.433       .  S
O659       Cr666   2.024       .  S
O660       Cr666   1.980       .  S
O660        C661   1.254       .  A
C661        O662   1.256       .  A
C661        C829   1.432       .  S
O662       Cr667   1.994       .  S
O663       Cr667   1.979       .  S
O663        C664   1.258       .  A
C664        C827   1.432       .  S
Cr665       O668   1.776       .  S
Cr666       O668   1.781       .  S
Cr667       O668   1.777       .  S
O669       Cr687   1.997       .  S
O669        C677   1.262       .  A
O670       Cr687   1.965       .  S
O670        C671   1.259       .  A
C671        O672   1.278       .  A
C671        C822   1.452       .  S
O672       Cr688   2.051       .  S
O673       Cr688   1.994   1_455  S
O673        C674   1.263       .  A
C674        O675   1.261   1_455  A
C674        C861   1.450       .  S
O675       Cr689   2.000       .  S
O676       Cr689   1.987       .  S
O676        C677   1.263       .  A
O678       Cr687   1.979       .  S
O678        C686   1.258       .  A
O679       Cr687   1.993       .  S
O679        C680   1.256       .  A
C680        O681   1.254       .  A
C680        C820   1.433       .  S
O681       Cr688   1.980       .  S
O682       Cr688   2.024       .  S
O682        C683   1.270       .  A
C683        O684   1.258       .  A
C683        C824   1.432       .  S
O684       Cr689   1.960       .  S
O685       Cr689   2.009       .  S
O685        C686   1.263       .  A
C686        C832   1.432       .  S
Cr687       O690   1.777       .  S
Cr688       O690   1.781       .  S
Cr689       O690   1.776       .  S
O691       Cr709   1.997       .  S
O691        C699   1.262       .  A
O692       Cr709   1.965       .  S
O692        C693   1.259       .  A
C693        O694   1.278       .  A
C693        C821   1.452       .  S
O694       Cr710   2.051       .  S
O695       Cr710   1.993   1_455  S
O695        C696   1.263       .  A
C696        O697   1.261   1_455  A
C696        C841   1.450       .  S
O697       Cr711   2.000       .  S
O698       Cr711   1.987       .  S
O698        C699   1.263       .  A
O700       Cr709   1.978       .  S
O700        C708   1.258       .  A
O701       Cr709   1.994       .  S
O701        C702   1.256       .  A
C702        O703   1.254       .  A
C702        C828   1.432       .  S
O703       Cr710   1.980       .  S
O704       Cr710   2.024       .  S
O704        C705   1.270       .  A
C705        O706   1.258       .  A
C705        C815   1.433       .  S
O706       Cr711   1.960       .  S
O707       Cr711   2.009       .  S
O707        C708   1.263       .  A
C708        C817   1.432       .  S
Cr709       O712   1.777       .  S
Cr710       O712   1.781       .  S
Cr711       O712   1.776       .  S
O713       Cr731   1.987       .  S
O713        C721   1.263       .  A
O714       Cr731   2.000       .  S
O714        C715   1.261   1_545  A
C715        O716   1.263       .  A
C715        C885   1.450       .  S
O716       Cr732   1.993   1_565  S
O717       Cr732   2.052       .  S
O717        C718   1.278       .  A
C718        O719   1.259       .  A
C718        C807   1.452       .  S
O719       Cr733   1.965       .  S
O720       Cr733   1.997       .  S
O720        C721   1.262       .  A
C721        C811   1.432       .  S
O722       Cr731   2.009       .  S
O722        C730   1.263       .  A
O723       Cr731   1.960       .  S
O723        C724   1.258       .  A
C724        O725   1.270       .  A
C724        C809   1.433       .  S
O725       Cr732   2.025       .  S
O726       Cr732   1.980       .  S
O726        C727   1.254       .  A
C727        O728   1.256       .  A
C727        C818   1.432       .  S
O728       Cr733   1.993       .  S
O729       Cr733   1.978       .  S
O729        C730   1.258       .  A
C730        C806   1.432       .  S
Cr731       O734   1.776       .  S
Cr732       O734   1.781       .  S
Cr733       O734   1.777       .  S
O735       Cr753   1.987       .  S
O735        C743   1.263       .  A
O736       Cr753   2.000       .  S
O736        C737   1.261   1_545  A
C737        O738   1.263       .  A
C737        C851   1.450       .  S
O738       Cr754   1.994   1_565  S
O739       Cr754   2.052       .  S
O739        C740   1.278       .  A
C740        O741   1.259       .  A
C740        C808   1.452       .  S
O741       Cr755   1.965       .  S
O742       Cr755   1.997       .  S
O742        C743   1.262       .  A
C743        C816   1.431       .  S
O744       Cr753   2.009       .  S
O744        C752   1.263       .  A
O745       Cr753   1.960       .  S
O745        C746   1.258       .  A
C746        O747   1.270       .  A
C746        C814   1.433       .  S
O747       Cr754   2.024       .  S
O748       Cr754   1.980       .  S
O748        C749   1.254       .  A
C749        O750   1.256       .  A
C749        C803   1.432       .  S
O750       Cr755   1.993       .  S
O751       Cr755   1.979       .  S
O751        C752   1.258       .  A
C752        C819   1.432       .  S
Cr753       O756   1.776       .  S
Cr754       O756   1.781       .  S
Cr755       O756   1.777       .  S
O757       Cr775   1.997       .  S
O757        C765   1.262       .  A
O758       Cr775   1.965       .  S
O758        C759   1.259       .  A
C759        O760   1.278       .  A
C759        C801   1.452       .  S
O760       Cr776   2.051       .  S
O761       Cr776   1.993       .  S
O761        C762   1.263       .  A
C762        O763   1.261       .  A
C762        C870   1.450       .  S
O763       Cr777   2.000       .  S
O764       Cr777   1.987       .  S
O764        C765   1.263       .  A
O766       Cr775   1.979       .  S
O766        C774   1.258       .  A
O767       Cr775   1.993       .  S
O767        C768   1.256       .  A
C768        O769   1.254       .  A
C768        C805   1.432       .  S
O769       Cr776   1.980       .  S
O770       Cr776   2.024       .  S
O770        C771   1.270       .  A
C771        O772   1.258       .  A
C771        C840   1.433       .  S
O772       Cr777   1.960       .  S
O773       Cr777   2.009       .  S
O773        C774   1.263       .  A
C774        C830   1.432       .  S
Cr775       O778   1.777       .  S
Cr776       O778   1.781       .  S
Cr777       O778   1.776       .  S
O779       Cr797   1.997       .  S
O779        C787   1.262       .  A
O780       Cr797   1.965       .  S
O780        C781   1.259       .  A
C781        O782   1.278       .  A
C781        C802   1.452       .  S
O782       Cr798   2.052       .  S
O783       Cr798   1.993       .  S
O783        C784   1.263       .  A
C784        O785   1.261       .  A
C784        C843   1.450       .  S
O785       Cr799   2.000       .  S
O786       Cr799   1.987       .  S
O786        C787   1.263       .  A
O788       Cr797   1.979       .  S
O788        C796   1.258       .  A
O789       Cr797   1.993       .  S
O789        C790   1.256       .  A
C790        O791   1.254       .  A
C790        C835   1.432       .  S
O791       Cr798   1.980       .  S
O792       Cr798   2.024       .  S
O792        C793   1.270       .  A
C793        O794   1.258       .  A
C793        C812   1.433       .  S
O794       Cr799   1.960       .  S
O795       Cr799   2.009       .  S
O795        C796   1.263       .  A
C796        C804   1.432       .  S
Cr797       O800   1.777       .  S
Cr798       O800   1.781       .  S
Cr799       O800   1.776       .  S
C803        C804   1.204       .  T
C805        C806   1.204       .  T
C807        C808   1.217       .  T
C809        C810   1.205       .  T
C811        C812   1.205       .  T
C813        C814   1.205       .  T
C815        C816   1.204       .  T
C817        C818   1.204       .  T
C819        C820   1.204       .  T
C823        C824   1.204       .  T
C825        C826   1.204       .  T
C827        C828   1.204       .  T
C829        C830   1.204       .  T
C831        C832   1.204       .  T
C833        C834   1.217       .  T
C835        C836   1.204       .  T
C837        C838   1.204       .  T
C839        C840   1.205       .  T
C841        C842   1.216       .  T
C843        C844   1.216       .  T
C845        C846   1.217       .  T
C847        C848   1.216       .  T
C849        C850   1.204       .  T
C851        C852   1.216       .  T
C853        C854   1.204       .  T
C857        C858   1.205       .  T
C861        C862   1.216       .  T
C863        C864   1.205       .  T
C865        C866   1.205       .  T
C867        C868   1.204       .  T
C869        C870   1.216       .  T
C871        C872   1.204       .  T
C873        C874   1.217       .  T
C875        C876   1.216       .  T
C879        C880   1.204       .  T
C881        C882   1.204       .  T
C883        C884   1.204       .  T
C885        C886   1.216       .  T
C887        C888   1.204       .  T
C891        C892   1.204       .  T
C893        C894   1.205       .  T
C895        C896   1.204       .  T
