geometry optimzed in LAMMPS
_audit_creation_date              2020-12-01 
_audit_creation_method            'lammps2cif' 
_symmetry_space_group_name_H-M    'P1' 
_symmetry_Int_Tables_number       1 
_symmetry_cell_setting            triclinic 
loop_ 
_symmetry_equiv_pos_as_xyz 
  x,y,z 
_cell_length_a                    39.75450355 
_cell_length_b                    39.754090867364674 
_cell_length_c                    219.88318267213765 
_cell_angle_alpha                 89.8342340498403 
_cell_angle_beta                  89.96988765882527 
_cell_angle_gamma                 119.90086380823732 
loop_ 
_atom_site_label 
_atom_site_type_symbol 
_atom_site_fract_x 
_atom_site_fract_y 
_atom_site_fract_z 
_atom_site_charge 
Zr1        Zr  0.80761171  0.17753452  0.61227074     2.17500
O2          O  0.83507581  0.22597296  0.60417894    -0.51300
O3          O  0.74233994  0.16797116  0.61209484    -0.74500
O4          O  0.78418574  0.14882619  0.60246345    -0.81300
O5          O  0.84550491  0.25578408  0.62430275    -0.83100
O6          O  0.77671756  0.08826372  0.60261631    -0.78700
O7          O  0.82035054  0.24154525  0.61474965    -0.90300
O8          O  0.70730249  0.12418376  0.61946300    -0.76300
O9          O  0.76715755  0.10998016  0.61406314    -0.85800
O10         O  0.78879306  0.17169426  0.62266160    -0.85500
O11         O  0.84748401  0.14997114  0.60977297    -0.72200
O12         O  0.86712936  0.20707864  0.61787431    -0.84400
Zr13       Zr  0.84744650  0.10317683  0.62804769     2.26400
Zr14       Zr  0.80706272  0.08230921  0.61189846     2.06300
Zr15       Zr  0.84783212  0.19945167  0.62829762     2.10000
Zr16       Zr  0.74910244  0.10405365  0.62445309     1.78800
O17         O  0.91275118  0.25171484  0.63076344    -0.93200
O18         O  0.69381353  0.04377084  0.62093537    -0.41000
O19         O  0.80769767  0.13143354  0.63026757    -0.77600
O20         O  0.78771123  0.07434164  0.62237203    -0.96300
O21         O  0.86584966  0.10972632  0.61762491    -0.89600
O22         O  0.88743650  0.17112390  0.62625623    -0.92400
C23         C  0.71101941  0.14762265  0.61513868     1.01300
C24         C  0.83417440  0.26411463  0.61932536     1.14200
C25         C  0.77312534  0.11559081  0.60010802     1.05000
O26         O  0.75140329  0.01907472  0.60964169    -0.94600
O27         O  0.81527538  0.02872407  0.61532493    -0.90300
O28         O  0.83995420  0.04116289  0.62491863    -0.83500
C29         C  0.82740835  0.01987062  0.62014571     1.11700
O30         O  0.93281200  0.22496245  0.60759334    -0.96600
Zr31       Zr  0.90542900  0.17726323  0.61579606     1.88900
O32         O  0.91433934  0.11628862  0.62858793    -0.73200
O33         O  0.84514274  0.07731626  0.60364338    -0.52500
O34         O  0.92947884  0.15207149  0.60783945    -0.97200
O35         O  0.96221836  0.23775163  0.61892199    -0.54400
O36         O  0.94741507  0.15862989  0.62094901    -0.73700
C37         C  0.94522895  0.13693647  0.62543569     0.98600
O38         O  0.81833466  0.05081919  0.63557679    -0.62600
O39         O  0.81912009  0.22191794  0.63593187    -0.57400
O40         O  0.86009034  0.12827272  0.63840037    -0.94000
O41         O  0.85191271  0.18097414  0.63866859    -0.92500
O42         O  0.72384594  0.12611585  0.63267471    -0.92800
O43         O  0.71961871  0.05618399  0.63256565    -0.91600
C44         C  0.85725570  0.15497536  0.64123500     1.17500
H45         H  0.77481538  0.18527204  0.62350366     0.33400
H46         H  0.77256418  0.04701321  0.62333552     0.44300
H47         H  0.90980047  0.18211259  0.62889093     0.37800
H48         H  0.85430728  0.15390197  0.60550594     0.34300
H49         H  0.67092257  0.04345822  0.62277801     0.26000
H50         H  0.86615587  0.07517024  0.60569679     0.32000
H51         H  0.95743917  0.16309103  0.60872565     0.37900
H52         H  0.74588268  0.13959510  0.63551952     0.32400
H53         H  0.83678524  0.25030367  0.63619902     0.31200
H54         H  0.91439475  0.25088265  0.63524902     0.32900
H55         H  0.98470440  0.23593556  0.61739716     0.31900
H56         H  0.74180542  0.05652633  0.63466649     0.35900
H57         H  0.80815140  0.06021265  0.63886898     0.28600
H58         H  0.81253251  0.22426021  0.60198213     0.32800
H59         H  0.95839196  0.22765821  0.60664051     0.35700
H60         H  0.79522133  0.21892610  0.63402798     0.28300
H61         H  0.79453959  0.03015103  0.63362783     0.41200
H62         H  0.72969502  0.01845867  0.61193991     0.31200
H63         H  0.69179244  0.04804993  0.61654478     0.38800
H64         H  0.96346120  0.23575669  0.62339455     0.30700
H65         H  0.82820212  0.05123997  0.60190699     0.30800
H66         H  0.84712359  0.21602930  0.60128438     0.31000
Zr67       Zr  0.85095018  0.22305459  0.70230319     2.17500
O68         O  0.87099671  0.27996616  0.69584766    -0.51300
O69         O  0.78243632  0.20302413  0.70262869    -0.74500
O70         O  0.83507412  0.20577108  0.69166067    -0.81300
O71         O  0.88629109  0.29040827  0.71603051    -0.83100
O72         O  0.83958335  0.15172526  0.69002034    -0.78700
O73         O  0.85608630  0.28084868  0.70688341    -0.90300
O74         O  0.75383170  0.15469922  0.70963290    -0.76300
O75         O  0.81587641  0.15404202  0.70301317    -0.85800
O76         O  0.83611968  0.20816326  0.71280505    -0.85500
O77         O  0.89449984  0.20288629  0.69836868    -0.72200
O78         O  0.91220948  0.25268402  0.70749694    -0.84400
Zr79       Zr  0.90596352  0.14656311  0.71486548     2.26400
Zr80       Zr  0.85934780  0.13352147  0.69933350     2.06300
Zr81       Zr  0.89686073  0.23595396  0.71800781     2.10000
Zr82       Zr  0.80208219  0.13960560  0.71353503     1.78800
O83         O  0.95015012  0.29768687  0.72149212    -0.93200
O84         O  0.74914777  0.07778794  0.70997805    -0.41000
O85         O  0.86263386  0.16678898  0.71891594    -0.77600
O86         O  0.84401659  0.11715272  0.70984116    -0.96300
O87         O  0.92052318  0.16191819  0.70439172    -0.89600
O88         O  0.94014751  0.21557615  0.71415757    -0.92400
C89         C  0.75298024  0.17826434  0.70570706     1.01300
C90         C  0.87028382  0.30002869  0.71181114     1.14200
C91         C  0.83359679  0.17907180  0.68821668     1.05000
O92         O  0.79908853  0.07565228  0.69650777    -0.94600
O93         O  0.86674903  0.07742533  0.70140736    -0.90300
O94         O  0.89466358  0.08504593  0.71071374    -0.83500
C95         C  0.87969116  0.06580584  0.70580864     1.11700
O96         O  0.97748089  0.28526608  0.69667054    -0.96600
Zr97       Zr  0.95454523  0.23079793  0.70373405     1.88900
O98         O  0.97121010  0.15846377  0.71280421    -0.73200
O99         O  0.89460714  0.12539574  0.69092744    -0.52500
O100        O  0.97991808  0.22032813  0.69427614    -0.97200
O101        O  0.00627835  0.28985722  0.70829092    -0.54400
O102        O  0.00106117  0.21106074  0.70656382    -0.73700
C103        C  0.00046364  0.18353793  0.70969731     0.98600
O104        O  0.88667399  0.09687119  0.72275244    -0.62600
O105        O  0.85555225  0.22923091  0.72664973    -0.57400
O106        O  0.93520140  0.17256985  0.72472302    -0.94000
O107        O  0.92902491  0.22548424  0.72666795    -0.92500
O108        O  0.77682790  0.15455499  0.72259325    -0.92800
O109        O  0.78016942  0.08789186  0.72107928    -0.91600
C110        C  0.94007338  0.20104726  0.72808538     1.17500
H111        H  0.82024248  0.21842514  0.71431799     0.33400
H112        H  0.83061473  0.08936779  0.71039249     0.44300
H113        H  0.96405795  0.22690640  0.71642587     0.37800
H114        H  0.90090478  0.21066591  0.69417190     0.34300
H115        H  0.72543236  0.07614692  0.71173710     0.26000
H116        H  0.87417206  0.10625327  0.68821781     0.32000
H117        H  0.97271281  0.19263338  0.69439498     0.37900
H118        H  0.74835209  0.14085030  0.72200934     0.32400
H119        H  0.87268771  0.25026917  0.72945705     0.31200
H120        H  0.94063393  0.30311126  0.72532171     0.32900
H121        H  0.02077256  0.28126997  0.71092692     0.31900
H122        H  0.80410723  0.09279622  0.72321594     0.35900
H123        H  0.87567588  0.10529663  0.72606393     0.28600
H124        H  0.84781941  0.27475040  0.69344933     0.32800
H125        H  0.00576164  0.29553975  0.69625811     0.35700
H126        H  0.83726091  0.23729399  0.72509870     0.28300
H127        H  0.86382428  0.07353224  0.72109836     0.41200
H128        H  0.78196976  0.08538369  0.69503239     0.31200
H129        H  0.74728975  0.08166263  0.70556829     0.38800
H130        H  0.99282474  0.29836621  0.71116109     0.30700
H131        H  0.90603455  0.15016531  0.68863807     0.30800
H132        H  0.88934751  0.27934609  0.69286383     0.31000
Zr133      Zr  0.83327496  0.59617067  0.61642652     2.17500
O134        O  0.78939031  0.56211774  0.60802633    -0.51300
O135        O  0.85121046  0.54625999  0.61792082    -0.74500
O136        O  0.86828071  0.60524603  0.60685824    -0.81300
O137        O  0.75298407  0.55367627  0.62833039    -0.83100
O138        O  0.91882649  0.66727755  0.60654199    -0.78700
O139        O  0.76634775  0.54515293  0.61857387    -0.90300
O140        O  0.90434495  0.57167579  0.62403087    -0.76300
O141        O  0.90119023  0.63628955  0.61817153    -0.85800
O142        O  0.84308617  0.58943504  0.62696235    -0.85500
O143        O  0.84945030  0.66129246  0.61357026    -0.72200
O144        O  0.79632411  0.61922712  0.62180957    -0.84400
Zr145      Zr  0.88990764  0.71613623  0.63160486     2.26400
Zr146      Zr  0.91757771  0.70133983  0.61565676     2.06300
Zr147      Zr  0.80658034  0.61268331  0.63233860     2.10000
Zr148      Zr  0.91102709  0.62971306  0.62863248     1.78800
O149        O  0.74789702  0.61168028  0.63581184    -0.93200
O150        O  0.97631294  0.64859213  0.62516094    -0.41000
O151        O  0.87433524  0.65160980  0.63428131    -0.77600
O152        O  0.92871846  0.69518742  0.62619361    -0.96300
O153        O  0.88065632  0.72361437  0.62110630    -0.89600
O154        O  0.82203682  0.67735765  0.62983891    -0.92400
C155        C  0.87902217  0.54480348  0.62066430     1.01300
C156        C  0.74382151  0.53554793  0.62325122     1.14200
C157        C  0.89857818  0.63305999  0.60430739     1.05000
O158        O  0.98390558  0.71851978  0.61313129    -0.94600
O159        O  0.96448645  0.76718305  0.61909189    -0.90300
O160        O  0.94588894  0.77631355  0.62845087    -0.83500
C161        C  0.96858655  0.78796416  0.62383018     1.11700
O162        O  0.76202619  0.65280097  0.61172234    -0.96600
Zr163      Zr  0.81325623  0.68434284  0.61928258     1.88900
O164        O  0.86725682  0.76251406  0.63134033    -0.73200
O165        O  0.91469605  0.74142047  0.60750366    -0.52500
O166        O  0.82658129  0.72597805  0.61040292    -0.97200
O167        O  0.74932860  0.66928072  0.62295713    -0.54400
O168        O  0.82550843  0.74638065  0.62339016    -0.73700
C169        C  0.84543393  0.76879777  0.62777896     0.98600
O170        O  0.93871879  0.74515901  0.63961254    -0.62600
O171        O  0.79563107  0.56104045  0.63946898    -0.57400
O172        O  0.86352037  0.70374717  0.64186275    -0.94000
O173        O  0.82148298  0.63885890  0.64253085    -0.92500
O174        O  0.89807741  0.58522811  0.63709871    -0.92800
O175        O  0.95940002  0.65813308  0.63664545    -0.91600
C176        C  0.84182799  0.67263379  0.64488716     1.17500
H177        H  0.83414002  0.56281364  0.62809383     0.33400
H178        H  0.95584101  0.71186524  0.62716083     0.44300
H179        H  0.80748650  0.68559780  0.63234064     0.37800
H180        H  0.84459874  0.66203744  0.60928003     0.34300
H181        H  0.98007189  0.62656242  0.62629222     0.26000
H182        H  0.94053502  0.75307357  0.60553839     0.32000
H183        H  0.81007139  0.73791607  0.61093768     0.37900
H184        H  0.87507181  0.58342955  0.63915355     0.32400
H185        H  0.76876353  0.55086965  0.64095918     0.31200
H186        H  0.73414538  0.58786120  0.63831985     0.32900
H187        H  0.75421341  0.68916590  0.62606418     0.31900
H188        H  0.94778662  0.66786427  0.63965572     0.35900
H189        H  0.93365625  0.72358242  0.64241481     0.28600
H190        H  0.79890023  0.54561720  0.60621331     0.32800
H191        H  0.75148904  0.67043368  0.61105366     0.35700
H192        H  0.79435961  0.53980699  0.63696108     0.28300
H193        H  0.96367690  0.75147603  0.63767105     0.41200
H194        H  0.99557931  0.71749145  0.61705366     0.31200
H195        H  0.97454087  0.64755678  0.62066817     0.38800
H196        H  0.73982296  0.64487501  0.62529492     0.30700
H197        H  0.89670172  0.72284165  0.60446621     0.30800
H198        H  0.79468540  0.58228184  0.60492458     0.31000
Zr199      Zr  0.77787577  0.59350981  0.70550522     2.17500
O200        O  0.72260553  0.56028097  0.69867257    -0.51300
O201        O  0.79216876  0.54030131  0.70584566    -0.74500
O202        O  0.79866011  0.59807785  0.69494420    -0.81300
O203        O  0.70573670  0.56035346  0.71866351    -0.83100
O204        O  0.85686441  0.65350056  0.69396169    -0.78700
O205        O  0.71550330  0.54328724  0.70924215    -0.90300
O206        O  0.83580904  0.55358827  0.71341077    -0.76300
O207        O  0.84574158  0.62020887  0.70699113    -0.85800
O208        O  0.78653359  0.58867182  0.71613541    -0.85500
O209        O  0.80579545  0.65971914  0.70205169    -0.72200
O210        O  0.75171424  0.62971867  0.71041273    -0.84400
Zr211      Zr  0.85941613  0.71804711  0.71931975     2.26400
Zr212      Zr  0.87400861  0.68618183  0.70371050     2.06300
Zr213      Zr  0.76093666  0.62467840  0.72105138     2.10000
Zr214      Zr  0.85425430  0.61630304  0.71764185     1.78800
O215        O  0.70135084  0.62726190  0.72217091    -0.93200
O216        O  0.91550408  0.62179069  0.71445783    -0.41000
O217        O  0.82918559  0.65197661  0.72286192    -0.77600
O218        O  0.88527238  0.68222975  0.71432616    -0.96300
O219        O  0.85023474  0.72330372  0.70874083    -0.89600
O220        O  0.79128655  0.69104493  0.71780641    -0.92400
C221        C  0.81364536  0.53191699  0.70915955     1.01300
C222        C  0.69549192  0.53682270  0.71412738     1.14200
C223        C  0.82781808  0.62281206  0.69179311     1.05000
O224        O  0.92772832  0.67515577  0.70148337    -0.94600
O225        O  0.93188656  0.74610496  0.70634053    -0.90300
O226        O  0.92478840  0.76550216  0.71575729    -0.83500
C227        C  0.94436287  0.76939027  0.71087113     1.11700
O228        O  0.72620027  0.67196361  0.70062802    -0.96600
Zr229      Zr  0.78253904  0.69675602  0.70729760     1.88900
O230        O  0.85605807  0.77656985  0.71773095    -0.73200
O231        O  0.89252320  0.73427516  0.69561421    -0.52500
O232        O  0.79820090  0.73003323  0.69750163    -0.97200
O233        O  0.72944838  0.70384931  0.71144504    -0.54400
O234        O  0.81414809  0.76554925  0.70995437    -0.73700
C235        C  0.83913141  0.78766760  0.71392503     0.98600
O236        O  0.90539345  0.74017350  0.72774890    -0.62600
O237        O  0.75021275  0.58636961  0.73025679    -0.57400
O238        O  0.83047744  0.72038266  0.72896564    -0.94000
O239        O  0.77158741  0.66537036  0.72994569    -0.92500
O240        O  0.83346615  0.57085366  0.72613726    -0.92800
O241        O  0.90015690  0.63822703  0.72604531    -0.91600
C242        C  0.79847934  0.69872346  0.73180577     1.17500
H243        H  0.77331246  0.56195181  0.71748707     0.33400
H244        H  0.91269434  0.69375478  0.71511623     0.44300
H245        H  0.78156468  0.70522839  0.72005106     0.37800
H246        H  0.80022183  0.66079459  0.69781108     0.34300
H247        H  0.91607193  0.59982808  0.71649396     0.26000
H248        H  0.90922398  0.72933421  0.69284463     0.32000
H249        H  0.82510025  0.75179271  0.69795151     0.37900
H250        H  0.82323284  0.58180210  0.72917836     0.32400
H251        H  0.72239285  0.57574507  0.73122608     0.31200
H252        H  0.68880556  0.61170997  0.72586545     0.32900
H253        H  0.74067913  0.72253978  0.71483379     0.31900
H254        H  0.91366547  0.66690111  0.72580827     0.35900
H255        H  0.89436347  0.71843239  0.73070620     0.28600
H256        H  0.72728139  0.54168055  0.69635221     0.32800
H257        H  0.72295915  0.69450615  0.69963695     0.35700
H258        H  0.75206810  0.56358321  0.72892570     0.28300
H259        H  0.92879647  0.74032235  0.72617257     0.41200
H260        H  0.94147254  0.69270583  0.69802367     0.31200
H261        H  0.91186478  0.61469250  0.71009886     0.38800
H262        H  0.71200362  0.67865429  0.71342952     0.30700
H263        H  0.86841484  0.72626296  0.69328204     0.30800
H264        H  0.72540375  0.58010077  0.69566392     0.31000
Zr265      Zr  0.40481602  0.20011964  0.61357878     2.17500
O266        O  0.42761647  0.17619897  0.60526114    -0.51300
O267        O  0.45959737  0.26538368  0.61384398    -0.74500
O268        O  0.39789382  0.22719113  0.60389507    -0.81300
O269        O  0.44426976  0.16266726  0.62605951    -0.83100
O270        O  0.33689564  0.21878994  0.60378890    -0.78700
O271        O  0.45524780  0.18484973  0.61626987    -0.90300
O272        O  0.44660176  0.29930705  0.62085528    -0.76300
O273        O  0.37101651  0.23471546  0.61510456    -0.85800
O274        O  0.41554407  0.22042525  0.62395322    -0.85500
O275        O  0.33815432  0.15514453  0.61121415    -0.72200
O276        O  0.37872417  0.14266235  0.61976598    -0.84400
Zr277      Zr  0.28721848  0.15221917  0.62938056     2.26400
Zr278      Zr  0.30415073  0.18960891  0.61319083     2.06300
Zr279      Zr  0.38770494  0.16327538  0.63013903     2.10000
Zr280      Zr  0.38253456  0.25571503  0.62533610     1.78800
O281        O  0.38566816  0.10498537  0.63407741    -0.93200
O282        O  0.37650254  0.30812062  0.62066443    -0.41000
O283        O  0.35402103  0.19824758  0.63156292    -0.77600
O284        O  0.31448788  0.21148070  0.62349866    -0.96300
O285        O  0.27758217  0.13177434  0.61908021    -0.89600
O286        O  0.32136485  0.11773702  0.62794596    -0.92400
C287        C  0.46857998  0.29635212  0.61683109     1.01300
C288        C  0.46334896  0.17133802  0.62103205     1.14200
C289        C  0.37031606  0.23049686  0.60140440     1.05000
O290        O  0.29176212  0.24163549  0.61033278    -0.94600
O291        O  0.24101101  0.17818019  0.61648372    -0.90300
O292        O  0.23084567  0.15664920  0.62626869    -0.83500
C293        C  0.22061182  0.16673125  0.62136660     1.11700
O294        O  0.34386205  0.07247083  0.61105458    -0.96600
Zr295      Zr  0.31238109  0.09838622  0.61753402     1.88900
O296        O  0.23414918  0.08436599  0.62909793    -0.73200
O297        O  0.26010639  0.14599133  0.60547978    -0.52500
O298        O  0.27411196  0.07335883  0.60828705    -0.97200
O299        O  0.31385123  0.04243338  0.62180697    -0.54400
O300        O  0.24787760  0.05560039  0.62132884    -0.73700
C301        C  0.22554533  0.05545328  0.62554553     0.98600
O302        O  0.26329870  0.17737294  0.63742008    -0.62600
O303        O  0.44059419  0.20673834  0.63680333    -0.57400
O304        O  0.29815011  0.13751319  0.63970957    -0.94000
O305        O  0.36181891  0.15472338  0.64048485    -0.92500
O306        O  0.42465222  0.28257922  0.63414905    -0.92800
O307        O  0.35971634  0.28694516  0.63243050    -0.91600
C308        C  0.32820731  0.14404440  0.64280657     1.17500
H309        H  0.44281782  0.23593175  0.62486079     0.33400
H310        H  0.30029045  0.22487811  0.62431425     0.44300
H311        H  0.31154063  0.09553851  0.63064117     0.37800
H312        H  0.33586602  0.14789193  0.60697667     0.34300
H313        H  0.39847951  0.33218859  0.62232389     0.26000
H314        H  0.24821387  0.16039461  0.60365874     0.32000
H315        H  0.25502498  0.04593734  0.60922229     0.37900
H316        H  0.41144184  0.26330424  0.63743606     0.32400
H317        H  0.44536665  0.18932869  0.63944041     0.31200
H318        H  0.40670587  0.11455307  0.63713196     0.32900
H319        H  0.29683382  0.03461627  0.62543709     0.31900
H320        H  0.33698368  0.26520016  0.63445357     0.35900
H321        H  0.28615041  0.19353416  0.64000129     0.28600
H322        H  0.44697773  0.19971024  0.60305791     0.32800
H323        H  0.32286088  0.04707897  0.60959887     0.35700
H324        H  0.46388783  0.21974736  0.63417322     0.28300
H325        H  0.25803955  0.19667009  0.63543891     0.41200
H326        H  0.30929587  0.26367753  0.61295145     0.31200
H327        H  0.38334257  0.30810059  0.61633427     0.38800
H328        H  0.34036409  0.05322104  0.62347725     0.30700
H329        H  0.27704345  0.14537859  0.60223197     0.30800
H330        H  0.40531808  0.16334459  0.60244801     0.31000
Zr331      Zr  0.40620781  0.15325091  0.70402273     2.17500
O332        O  0.44031720  0.13747016  0.69631592    -0.51300
O333        O  0.45508182  0.22265450  0.70430485    -0.74500
O334        O  0.39400311  0.16729032  0.69370018    -0.81300
O335        O  0.45131847  0.12143546  0.71644349    -0.83100
O336        O  0.33154287  0.15429514  0.69302163    -0.78700
O337        O  0.46198546  0.14686605  0.70688276    -0.90300
O338        O  0.43830959  0.25002136  0.71189682    -0.76300
O339        O  0.37010412  0.18549989  0.70574706    -0.85800
O340        O  0.41416162  0.16965899  0.71451563    -0.85500
O341        O  0.34018633  0.10605031  0.70145052    -0.72200
O342        O  0.38021088  0.09254782  0.70947550    -0.84400
Zr343      Zr  0.28785768  0.09778952  0.71953697     2.26400
Zr344      Zr  0.30415984  0.13866720  0.70332004     2.06300
Zr345      Zr  0.38861364  0.10999656  0.72000001     2.10000
Zr346      Zr  0.37794017  0.20143164  0.71630109     1.78800
O347        O  0.39695504  0.05463705  0.72229368    -0.93200
O348        O  0.36484844  0.25203292  0.71283417    -0.41000
O349        O  0.35363207  0.14304596  0.72219204    -0.77600
O350        O  0.31185531  0.15709563  0.71385139    -0.96300
O351        O  0.27826999  0.07995205  0.70908167    -0.89600
O352        O  0.32269870  0.06463024  0.71763687    -0.92400
C353        C  0.46111728  0.25168708  0.70764694     1.01300
C354        C  0.47196619  0.13480862  0.71160644     1.14200
C355        C  0.36481366  0.16380014  0.69066937     1.05000
O356        O  0.30063000  0.19590013  0.70038768    -0.94600
O357        O  0.24129839  0.12722459  0.70699989    -0.90300
O358        O  0.23110108  0.10161881  0.71656330    -0.83500
C359        C  0.22086350  0.11365435  0.71187707     1.11700
O360        O  0.34018326  0.02115997  0.69989007    -0.96600
Zr361      Zr  0.31315758  0.04713052  0.70724427     1.88900
O362        O  0.23636419  0.03131364  0.71925542    -0.73200
O363        O  0.25339456  0.09668871  0.69624284    -0.52500
O364        O  0.27299963  0.02432071  0.69815219    -0.97200
O365        O  0.31908604  0.99277339  0.71113009    -0.54400
O366        O  0.24812587  0.00243090  0.71126043    -0.73700
C367        C  0.22692743  0.00268294  0.71567634     0.98600
O368        O  0.26560615  0.12124384  0.72800483    -0.62600
O369        O  0.43376180  0.15175532  0.72775473    -0.57400
O370        O  0.29433630  0.07133161  0.72919792    -0.94000
O371        O  0.35577805  0.08097486  0.72956056    -0.92500
O372        O  0.42296129  0.23248889  0.72468498    -0.92800
O373        O  0.35055588  0.22197526  0.72442291    -0.91600
C374        C  0.32174121  0.06846386  0.73181741     1.17500
H375        H  0.44123971  0.18630264  0.71550367     0.33400
H376        H  0.29691105  0.16949548  0.71479664     0.65900
H377        H  0.31310379  0.04154035  0.72009729     0.37800
H378        H  0.33856059  0.09869605  0.69723737     0.34300
H379        H  0.38505188  0.27601186  0.71480389     0.26000
H380        H  0.24875849  0.11460213  0.69370776     0.32000
H381        H  0.25420713  0.99664366  0.69896943     0.37900
H382        H  0.44262849  0.22430226  0.72427338     0.32400
H383        H  0.41726308  0.15389967  0.73092912     0.31200
H384        H  0.41128734  0.06127191  0.72619042     0.32900
H385        H  0.30333457  0.98424282  0.71489790     0.31900
H386        H  0.34580970  0.20364587  0.72780871     0.35900
H387        H  0.28851543  0.13483500  0.73068502     0.28600
H388        H  0.45532947  0.16139114  0.69386869     0.32800
H389        H  0.31934322  0.99424171  0.69907632     0.35700
H390        H  0.44377766  0.13588024  0.72965227     0.28300
H391        H  0.26219673  0.14237662  0.72627617     0.41200
H392        H  0.30079619  0.20837477  0.70428609     0.31200
H393        H  0.37205620  0.25566849  0.70847282     0.38800
H394        H  0.34626752  0.00462066  0.71254681     0.30700
H395        H  0.26585297  0.08661253  0.69345660     0.30800
H396        H  0.41993390  0.11880477  0.69354985     0.31000
Zr397      Zr  0.20989276  0.39911814  0.88401513     2.17500
O398        O  0.18503392  0.42616460  0.89155749    -0.51300
O399        O  0.27499129  0.45547856  0.88308682    -0.74500
O400        O  0.23479924  0.39885378  0.89416344    -0.81300
O401        O  0.16913581  0.42759472  0.87062245    -0.83100
O402        O  0.23509575  0.34220535  0.89552863    -0.78700
O403        O  0.19225480  0.44585783  0.88023232    -0.90300
O404        O  0.31063813  0.43678443  0.87741000    -0.76300
O405        O  0.24757428  0.36789944  0.88358067    -0.85800
O406        O  0.23005482  0.40370817  0.87368213    -0.85500
O407        O  0.16763971  0.33319901  0.88732594    -0.72200
O408        O  0.15152013  0.36613249  0.87811211    -0.84400
Zr409      Zr  0.16706206  0.27326228  0.87037683     2.26400
Zr410      Zr  0.20580749  0.30195804  0.88656689     2.06300
Zr411      Zr  0.17210849  0.37012090  0.86779632     2.10000
Zr412      Zr  0.26764906  0.37230187  0.87334442     1.78800
O413        O  0.10965788  0.35738425  0.86381076    -0.93200
O414        O  0.31751410  0.36461421  0.87855157    -0.41000
O415        O  0.21027042  0.33908252  0.86727575    -0.77600
O416        O  0.22612964  0.30569659  0.87621168    -0.96300
O417        O  0.14748361  0.26878765  0.88071845    -0.89600
O418        O  0.12913509  0.30435287  0.87079863    -0.92400
C419        C  0.30693435  0.46171645  0.88061095     1.01300
C420        C  0.17769705  0.44995691  0.87525103     1.14200
C421        C  0.24232915  0.37602588  0.89728957     1.05000
O422        O  0.26345141  0.29870654  0.88934131    -0.94600
O423        O  0.19514413  0.23695401  0.88458393    -0.90300
O424        O  0.17455007  0.22150770  0.87481030    -0.83500
C425        C  0.18432564  0.21402730  0.87998582     1.11700
O426        O  0.08522689  0.32851683  0.88850867    -0.96600
Zr427      Zr  0.11005200  0.30015575  0.88119573     1.88900
O428        O  0.09848866  0.22231222  0.86997014    -0.73200
O429        O  0.16760606  0.26401893  0.89525408    -0.52500
O430        O  0.08230547  0.25724247  0.88995422    -0.97200
O431        O  0.05681126  0.30693145  0.87706506    -0.54400
O432        O  0.06525165  0.23687652  0.87688646    -0.73700
C433        C  0.06716751  0.21464943  0.87283242     0.98600
O434        O  0.18831841  0.23648513  0.86415835    -0.62600
O435        O  0.20596359  0.42053258  0.86013865    -0.57400
O436        O  0.16379784  0.28268122  0.85945070    -0.94000
O437        O  0.17290210  0.34320522  0.85791394    -0.92500
O438        O  0.29817269  0.41292974  0.86445291    -0.92800
O439        O  0.29823933  0.34765740  0.86645667    -0.91600
C440        C  0.16876156  0.31087383  0.85598549     1.17500
H441        H  0.24489954  0.43035943  0.87234018     0.33400
H442        H  0.24046825  0.29209614  0.87574744     0.44300
H443        H  0.10713517  0.29220101  0.86809925     0.37800
H444        H  0.16024043  0.33307710  0.89152253     0.34300
H445        H  0.34236179  0.38681703  0.87713823     0.26000
H446        H  0.14235796  0.24469104  0.89349964     0.32000
H447        H  0.05475292  0.23971105  0.88889043     0.37900
H448        H  0.27849513  0.40124120  0.86119631     0.32400
H449        H  0.18781482  0.42988131  0.85907246     0.31200
H450        H  0.10428681  0.33957350  0.86034542     0.32900
H451        H  0.05189663  0.29510114  0.87297359     0.31900
H452        H  0.27629978  0.32434188  0.86461410     0.35900
H453        H  0.16718174  0.22158921  0.86122053     0.28600
H454        H  0.20811567  0.44635127  0.89372054     0.32800
H455        H  0.05778247  0.30857743  0.88922439     0.35700
H456        H  0.22742623  0.44245925  0.86232292     0.28300
H457        H  0.21026358  0.25600341  0.86168535     0.41200
H458        H  0.27217146  0.29217159  0.88553186     0.31200
H459        H  0.31562119  0.37042711  0.88287224     0.38800
H460        H  0.06827092  0.33507247  0.87626692     0.30700
H461        H  0.17983192  0.24865884  0.89651078     0.30800
H462        H  0.17118827  0.40521529  0.89459084     0.31000
Zr463      Zr  0.19805576  0.39539500  0.79511565     2.17500
O464        O  0.20650034  0.44620183  0.80220846    -0.51300
O465        O  0.26785055  0.43807199  0.79371627    -0.74500
O466        O  0.20863589  0.38320043  0.80567343    -0.81300
O467        O  0.16041093  0.43657535  0.78284346    -0.83100
O468        O  0.19723778  0.32150057  0.80661473    -0.78700
O469        O  0.18648156  0.44796575  0.79232628    -0.90300
O470        O  0.28914245  0.41116341  0.78670609    -0.76300
O471        O  0.22323345  0.35286721  0.79355796    -0.85800
O472        O  0.21017112  0.39668700  0.78446748    -0.85500
O473        O  0.14729630  0.33317846  0.79866481    -0.72200
O474        O  0.13633732  0.37332236  0.79022681    -0.84400
Zr475      Zr  0.12349844  0.26757674  0.78133823     2.26400
Zr476      Zr  0.17262530  0.29053328  0.79687702     2.06300
Zr477      Zr  0.14888104  0.37339935  0.77957679     2.10000
Zr478      Zr  0.23384874  0.35308929  0.78288222     1.78800
O479        O  0.09859861  0.38721338  0.77622735    -0.93200
O480        O  0.28008281  0.33306053  0.78599529    -0.41000
O481        O  0.17314251  0.33004247  0.77771404    -0.77600
O482        O  0.18516571  0.29004944  0.78622721    -0.96300
O483        O  0.11160997  0.26735798  0.79194861    -0.89600
O484        O  0.09908010  0.31092277  0.78291525    -0.92400
C485        C  0.29463657  0.43787754  0.79047247     1.01300
C486        C  0.17349476  0.45729033  0.78765459     1.14200
C487        C  0.20662827  0.35491895  0.80880399     1.05000
O488        O  0.22793249  0.28151982  0.79880207    -0.94600
O489        O  0.15142701  0.22371600  0.79440233    -0.90300
O490        O  0.12560571  0.21003782  0.78487279    -0.83500
C491        C  0.13666770  0.20111669  0.78983057     1.11700
O492        O  0.07146488  0.34374250  0.80127874    -0.96600
Zr493      Zr  0.08697293  0.31012644  0.79347638     1.88900
O494        O  0.05525604  0.22174956  0.78319944    -0.73200
O495        O  0.13289636  0.24752382  0.80506040    -0.52500
O496        O  0.06021844  0.27106404  0.80264166    -0.97200
O497        O  0.03969862  0.32747627  0.78980457    -0.54400
O498        O  0.03339566  0.24826476  0.79022200    -0.73700
C499        C  0.02862075  0.22095671  0.78661248     0.98600
O500        O  0.13596930  0.23372350  0.77316711    -0.62600
O501        O  0.19429412  0.41571673  0.77184197    -0.57400
O502        O  0.09638500  0.27389249  0.77167432    -0.94000
O503        O  0.11690035  0.33816706  0.77038309    -0.92500
O504        O  0.26116060  0.39443687  0.77395673    -0.92800
O505        O  0.25011901  0.32196911  0.77478103    -0.91600
C506        C  0.09886633  0.30271264  0.76860453     1.17500
H507        H  0.22843604  0.42260489  0.78307707     0.33400
H508        H  0.19463139  0.27236356  0.78542743     0.44300
H509        H  0.07536358  0.30283958  0.78069123     0.37800
H510        H  0.14161510  0.33377444  0.80291570     0.34300
H511        H  0.30456443  0.35131218  0.78389321     0.26000
H512        H  0.15118345  0.24384321  0.80765149     0.32000
H513        H  0.06048966  0.24671588  0.80182862     0.37900
H514        H  0.28956076  0.40542879  0.77432237     0.32400
H515        H  0.19408258  0.39789191  0.76868830     0.31200
H516        H  0.11094143  0.40701700  0.77298341     0.32900
H517        H  0.02339529  0.30703141  0.78685386     0.31900
H518        H  0.22859024  0.29475587  0.77478184     0.35900
H519        H  0.14567960  0.25221476  0.76971202     0.28600
H520        H  0.23199052  0.45529938  0.80417815     0.32800
H521        H  0.04298666  0.32822113  0.80184383     0.35700
H522        H  0.18118628  0.42862044  0.76991311     0.28300
H523        H  0.15907016  0.23238632  0.77449767     0.41200
H524        H  0.23275711  0.27241602  0.79488526     0.31200
H525        H  0.28526536  0.34039271  0.79033592     0.38800
H526        H  0.05500984  0.35096990  0.78728323     0.30700
H527        H  0.12514717  0.26322682  0.80756066     0.30800
H528        H  0.18699868  0.43316612  0.80547088     0.31000
Zr529      Zr  0.59988202  0.82956440  0.88543155     2.17500
O530        O  0.57665827  0.78868883  0.89449775    -0.51300
O531        O  0.54668716  0.84256841  0.88472459    -0.74500
O532        O  0.61229373  0.86822695  0.89470655    -0.81300
O533        O  0.55139923  0.75022377  0.87369596    -0.83100
O534        O  0.67206927  0.92199438  0.89388142    -0.78700
O535        O  0.54550712  0.76429513  0.88354536    -0.90300
O536        O  0.55830141  0.88265515  0.87662623    -0.76300
O537        O  0.63430675  0.89665718  0.88274602    -0.85800
O538        O  0.58834148  0.83320661  0.87485940    -0.85500
O539        O  0.66683097  0.85160203  0.88760034    -0.72200
O540        O  0.62313153  0.79226445  0.88015665    -0.84400
Zr541      Zr  0.71592187  0.88771718  0.86892130     2.26400
Zr542      Zr  0.70136816  0.91833482  0.88453415     2.06300
Zr543      Zr  0.61389147  0.79861772  0.86957259     2.10000
Zr544      Zr  0.62194275  0.89999906  0.87229477     1.78800
O545        O  0.61699991  0.73970255  0.86790511    -0.93200
O546        O  0.62827297  0.96119093  0.87568000    -0.41000
O547        O  0.64841154  0.86592686  0.86697093    -0.77600
O548        O  0.69024423  0.92411840  0.87399584    -0.96300
O549        O  0.72633237  0.88252404  0.87945821    -0.89600
O550        O  0.68079162  0.82020741  0.87147215    -0.92400
C551        C  0.53711114  0.86158488  0.88108329     1.01300
C552        C  0.53325755  0.74259566  0.87879355     1.14200
C553        C  0.64019410  0.90063605  0.89670061     1.05000
O554        O  0.71482650  0.98400481  0.88661871    -0.94600
O555        O  0.76329468  0.96883754  0.88067686    -0.90300
O556        O  0.77210484  0.95214149  0.87118769    -0.83500
C557        C  0.78303168  0.97536268  0.87576555     1.11700
O558        O  0.66329973  0.76906519  0.89048752    -0.96600
Zr559      Zr  0.69007909  0.81540206  0.88209950     1.88900
O560        O  0.76465434  0.86643274  0.86954850    -0.73200
O561        O  0.74467378  0.91927540  0.89244197    -0.52500
O562        O  0.73652756  0.83460961  0.89041761    -0.97200
O563        O  0.67735302  0.75091298  0.87917348    -0.54400
O564        O  0.74905982  0.82532457  0.87759058    -0.73700
C565        C  0.77110250  0.84458885  0.87315288     0.98600
O566        O  0.74819476  0.92594761  0.85986180    -0.62600
O567        O  0.56391321  0.78049744  0.86183659    -0.57400
O568        O  0.69523619  0.86313663  0.85854538    -0.94000
O569        O  0.63568160  0.80885993  0.85910410    -0.92500
O570        O  0.57824295  0.87998769  0.86361154    -0.92800
O571        O  0.64681730  0.94845890  0.86421063    -0.91600
C572        C  0.66515742  0.83437678  0.85611831     1.17500
H573        H  0.56100135  0.82150761  0.87396537     0.33400
H574        H  0.70443039  0.95101611  0.87275432     0.44300
H575        H  0.68955533  0.80585419  0.86903357     0.37800
H576        H  0.67017904  0.84942489  0.89191284     0.34300
H577        H  0.60594744  0.96190147  0.87382063     0.26000
H578        H  0.76817695  0.92343571  0.89023936     0.32000
H579        H  0.76133153  0.85533453  0.88870929     0.37900
H580        H  0.58882618  0.86848502  0.86073132     0.32400
H581        H  0.54950522  0.75176748  0.86180087     0.31200
H582        H  0.60300337  0.72276390  0.87141031     0.32900
H583        H  0.69865797  0.74835160  0.88102994     0.31900
H584        H  0.66853952  0.94634845  0.86241315     0.35900
H585        H  0.74732047  0.95031250  0.86026291     0.28600
H586        H  0.55922806  0.79611889  0.89657755     0.32800
H587        H  0.68298997  0.76153171  0.89144630     0.35700
H588        H  0.54543765  0.78784161  0.86354651     0.28300
H589        H  0.77594355  0.93370906  0.86026249     0.41200
H590        H  0.70274417  0.99031468  0.88319352     0.31200
H591        H  0.62211618  0.95748067  0.88007950     0.38800
H592        H  0.68264311  0.75244766  0.87475450     0.30700
H593        H  0.75303728  0.94390454  0.89463537     0.30800
H594        H  0.59954953  0.79809512  0.89718971     0.31000
Zr595      Zr  0.61381333  0.80202598  0.79687086     2.17500
O596        O  0.57961833  0.76132404  0.80562846    -0.51300
O597        O  0.56577671  0.82335851  0.79602635    -0.74500
O598        O  0.63467808  0.83586878  0.80666548    -0.81300
O599        O  0.56284301  0.71178033  0.78677427    -0.83100
O600        O  0.69430790  0.88916495  0.80543865    -0.78700
O601        O  0.55815284  0.73751715  0.79575054    -0.90300
O602        O  0.57657558  0.85599249  0.78709816    -0.76300
O603        O  0.64705186  0.86692335  0.79312593    -0.85800
O604        O  0.59999558  0.79838018  0.78625138    -0.85500
O605        O  0.68113788  0.82373881  0.79883406    -0.72200
O606        O  0.63646916  0.76135142  0.79247653    -0.84400
Zr607      Zr  0.72353882  0.84646813  0.77990154     2.26400
Zr608      Zr  0.71412273  0.88892137  0.79496616     2.06300
Zr609      Zr  0.62286602  0.75874741  0.78181138     2.10000
Zr610      Zr  0.63437079  0.86298353  0.78247113     1.78800
O611        O  0.61198666  0.69300957  0.78094615    -0.93200
O612        O  0.64872300  0.92930486  0.78425248    -0.41000
O613        O  0.65642461  0.82320812  0.77775001    -0.77600
O614        O  0.70170280  0.88754790  0.78427241    -0.96300
O615        O  0.73758810  0.84985879  0.79047316    -0.89600
O616        O  0.68998784  0.78157664  0.78365935    -0.92400
C617        C  0.55713696  0.84121546  0.79197550     1.01300
C618        C  0.54545016  0.71038260  0.79177965     1.14200
C619        C  0.66497163  0.86612985  0.80871283     1.05000
O620        O  0.70990712  0.94777391  0.79581550    -0.94600
O621        O  0.77419939  0.93542855  0.79001719    -0.90300
O622        O  0.78140111  0.90960688  0.78121057    -0.83500
C623        C  0.79289097  0.93688675  0.78515821     1.11700
O624        O  0.68368236  0.74498037  0.80330547    -0.96600
Zr625      Zr  0.70438199  0.78517548  0.79415445     1.88900
O626        O  0.77520223  0.83177253  0.78085925    -0.73200
O627        O  0.77045290  0.91286969  0.80160410    -0.52500
O628        O  0.75212464  0.81254837  0.80229248    -0.97200
O629        O  0.69186296  0.71959658  0.79219004    -0.54400
O630        O  0.76527604  0.79722147  0.78958560    -0.73700
C631        C  0.78494714  0.81442989  0.78479181     0.98600
O632        O  0.74219928  0.88151154  0.77024261    -0.62600
O633        O  0.57385721  0.74838404  0.77425630    -0.57400
O634        O  0.71160010  0.80383101  0.77125212    -0.94000
O635        O  0.65065581  0.75208134  0.77230078    -0.92500
O636        O  0.58477183  0.83885274  0.77459534    -0.92800
O637        O  0.65628027  0.90168172  0.77318827    -0.91600
C638        C  0.68313534  0.77124994  0.76946160     1.17500
H639        H  0.57246714  0.78705273  0.78553512     0.33400
H640        H  0.71577590  0.91329972  0.78254737     0.44300
H641        H  0.69842221  0.76547070  0.78165755     0.37800
H642        H  0.68602075  0.82287581  0.80310792     0.34300
H643        H  0.62696544  0.93077717  0.78233181     0.26000
H644        H  0.77125557  0.93490155  0.80382201     0.32000
H645        H  0.76907503  0.80111955  0.80174770     0.37900
H646        H  0.57536216  0.85769457  0.77447483     0.32400
H647        H  0.58791574  0.76868253  0.77113839     0.31200
H648        H  0.59386497  0.68154438  0.77748656     0.32900
H649        H  0.71028946  0.72239241  0.78893251     0.31900
H650        H  0.66317891  0.88651503  0.77040418     0.35900
H651        H  0.71797662  0.87012761  0.76783159     0.28600
H652        H  0.56891125  0.77534209  0.80790784     0.32800
H653        H  0.70293354  0.73638601  0.80391392     0.35700
H654        H  0.56792514  0.72383388  0.77222765     0.28300
H655        H  0.74740131  0.90800858  0.77119251     0.41200
H656        H  0.72706694  0.96513235  0.79256514     0.31200
H657        H  0.64465311  0.93049192  0.78867111     0.38800
H658        H  0.66611132  0.70640585  0.79020638     0.30700
H659        H  0.76327768  0.89234547  0.80471795     0.30800
H660        H  0.59996519  0.76182081  0.80828673     0.31000
Zr661      Zr  0.16046565  0.77732245  0.88698179     2.17500
O662        O  0.19937932  0.79671145  0.89622632    -0.51300
O663        O  0.15213131  0.71314356  0.88571821    -0.74500
O664        O  0.11954938  0.74235361  0.89575845    -0.81300
O665        O  0.24767123  0.82629285  0.87637210    -0.83100
O666        O  0.06396988  0.74542731  0.89503083    -0.78700
O667        O  0.22827807  0.79468831  0.88546428    -0.90300
O668        O  0.11273632  0.68561500  0.87756313    -0.76300
O669        O  0.09414107  0.74265786  0.88395957    -0.85800
O670        O  0.16086587  0.76619767  0.87631809    -0.85500
O671        O  0.13375279  0.81810835  0.88948750    -0.72200
O672        O  0.19528854  0.83980390  0.88219235    -0.84400
Zr673      Zr  0.10258754  0.83516371  0.87094878     2.26400
Zr674      Zr  0.06748596  0.78359034  0.88613935     2.06300
Zr675      Zr  0.19397013  0.82824021  0.87148702     2.10000
Zr676      Zr  0.09456891  0.73113993  0.87340883     1.78800
O677        O  0.24871937  0.89177746  0.86896306    -0.93200
O678        O  0.03328975  0.67412943  0.87620790    -0.41000
O679        O  0.12766015  0.79310779  0.86849401    -0.77600
O680        O  0.06668632  0.77158956  0.87547442    -0.96300
O681        O  0.10228942  0.84625327  0.88154371    -0.89600
O682        O  0.16896207  0.87005984  0.87386077    -0.92400
C683        C  0.13394711  0.68531446  0.88194698     1.01300
C684        C  0.25391328  0.81281117  0.88129904     1.14200
C685        C  0.08563277  0.73428702  0.89765999     1.05000
O686        O  0.00219311  0.72768642  0.88636416    -0.94600
O687        O  0.01966431  0.80081584  0.88244822    -0.90300
O688        O  0.04223873  0.83253453  0.87343262    -0.83500
C689        C  0.01709540  0.81867363  0.87771964     1.11700
O690        O  0.20814732  0.90009583  0.89368649    -0.96600
Zr691      Zr  0.16832803  0.88013312  0.88453436     1.88900
O692        O  0.12086171  0.90362151  0.87130881    -0.73200
O693        O  0.05758191  0.81426594  0.89499690    -0.52500
O694        O  0.13824802  0.90027109  0.89229279    -0.97200
O695        O  0.23403827  0.93380139  0.88288381    -0.54400
O696        O  0.15919336  0.92943448  0.87960871    -0.73700
C697        C  0.14123367  0.93188657  0.87493689     0.98600
O698        O  0.05708681  0.81381868  0.86243426    -0.62600
O699        O  0.21794271  0.79760895  0.86445222    -0.57400
O700        O  0.13379947  0.85483227  0.86110817    -0.94000
O701        O  0.18008833  0.83718587  0.86098386    -0.92500
O702        O  0.11877703  0.71130073  0.86475704    -0.92800
O703        O  0.04897693  0.70715788  0.86497077    -0.91600
C704        C  0.15830197  0.84821819  0.85835083     1.17500
H705        H  0.17422445  0.75215215  0.87538570     0.33400
H706        H  0.04024788  0.75880861  0.87401112     0.44300
H707        H  0.18302935  0.89415905  0.87164763     0.37800
H708        H  0.13457929  0.82177709  0.89383743     0.34300
H709        H  0.03447211  0.65205208  0.87435985     0.26000
H710        H  0.05692838  0.83714305  0.89335342     0.32000
H711        H  0.14834498  0.92825428  0.89153366     0.37900
H712        H  0.13469216  0.73545966  0.86240891     0.32400
H713        H  0.24474615  0.81805448  0.86344670     0.31200
H714        H  0.26942637  0.88653866  0.86761246     0.32900
H715        H  0.23352039  0.94431269  0.87881995     0.31900
H716        H  0.05172721  0.73084165  0.86300568     0.35900
H717        H  0.06613165  0.80073843  0.85958374     0.28600
H718        H  0.19356254  0.77218405  0.89827816     0.32800
H719        H  0.21289780  0.92646709  0.89462082     0.35700
H720        H  0.22112580  0.77846261  0.86690406     0.28300
H721        H  0.03250642  0.79224273  0.86405932     0.41200
H722        H  0.00130202  0.71162393  0.88287059     0.31200
H723        H  0.03530966  0.67091062  0.88063572     0.38800
H724        H  0.24994657  0.92124252  0.88230273     0.30700
H725        H  0.03051967  0.79620594  0.89627610     0.30800
H726        H  0.18746181  0.80814568  0.89885266     0.31000
Zr727      Zr  0.21561533  0.81999604  0.79828780     2.17500
O728        O  0.26738699  0.84523640  0.80584457    -0.51300
O729        O  0.20646248  0.75432879  0.79829746    -0.74500
O730        O  0.19124758  0.80380785  0.80867097    -0.81300
O731        O  0.29259600  0.85982060  0.78574864    -0.83100
O732        O  0.13596673  0.80726180  0.80930828    -0.78700
O733        O  0.27994704  0.83502352  0.79535859    -0.90300
O734        O  0.16223426  0.72030139  0.79098684    -0.76300
O735        O  0.14809426  0.77816335  0.79668625    -0.85800
O736        O  0.20908640  0.80233268  0.78784203    -0.85500
O737        O  0.18736722  0.85943761  0.80077809    -0.72200
O738        O  0.24257918  0.88002269  0.79263844    -0.84400
Zr739      Zr  0.13645410  0.85661608  0.78284993     2.26400
Zr740      Zr  0.11945363  0.81708788  0.79904790     2.06300
Zr741      Zr  0.23494509  0.86135557  0.78216398     2.10000
Zr742      Zr  0.14162817  0.76153857  0.78617173     1.78800
O743        O  0.29409345  0.92042823  0.77928000    -0.93200
O744        O  0.08119507  0.70515456  0.78945593    -0.41000
O745        O  0.16709755  0.81971684  0.78021410    -0.77600
O746        O  0.11009025  0.79748466  0.78859315    -0.96300
O747        O  0.14396024  0.87549808  0.79323799    -0.89600
O748        O  0.20421956  0.89844878  0.78446458    -0.92400
C749        C  0.18594159  0.72337042  0.79518383     1.01300
C750        C  0.30182759  0.84876731  0.79067884     1.14200
C751        C  0.16331118  0.80325314  0.81167847     1.05000
O752        O  0.06691191  0.75309484  0.80193354    -0.94600
O753        O  0.06178992  0.81760583  0.79562281    -0.90300
O754        O  0.07126812  0.84082773  0.78591593    -0.83500
C755        C  0.05059512  0.82696374  0.79075492     1.11700
O756        O  0.26519229  0.95142874  0.80183928    -0.96600
Zr757      Zr  0.21138267  0.91725719  0.79477855     1.88900
O758        O  0.14013081  0.91916743  0.78320548    -0.73200
O759        O  0.09949188  0.85083502  0.80614458    -0.52500
O760        O  0.19181461  0.93856469  0.80381806    -0.97200
O761        O  0.26574269  0.97470194  0.79020565    -0.54400
O762        O  0.18245796  0.95416372  0.79070334    -0.73700
C763        C  0.15799413  0.94955555  0.78650915     0.98600
O764        O  0.08971935  0.82669187  0.77461455    -0.62600
O765        O  0.24330533  0.82198778  0.77450559    -0.57400
O766        O  0.16557340  0.88314531  0.77300354    -0.94000
O767        O  0.22467076  0.88690975  0.77265625    -0.92500
O768        O  0.16531565  0.73826894  0.77789463    -0.92800
O769        O  0.09433520  0.73257661  0.77801591    -0.91600
C770        C  0.19784499  0.89221084  0.77036353     1.17500
H771        H  0.22304029  0.78889095  0.78688658     0.33400
H772        H  0.08283558  0.78123483  0.78772765     0.44300
H773        H  0.21418344  0.92129823  0.78193200     0.37800
H774        H  0.19251212  0.86764923  0.80496169     0.34300
H775        H  0.08090303  0.68283564  0.78741532     0.26000
H776        H  0.08162462  0.83055763  0.80902244     0.32000
H777        H  0.20042154  0.96625954  0.80305683     0.37900
H778        H  0.14995731  0.70961885  0.77819609     0.32400
H779        H  0.22255721  0.81595482  0.77149558     0.31200
H780        H  0.30494455  0.91263922  0.77586323     0.32900
H781        H  0.25440865  0.98335158  0.78697273     0.31900
H782        H  0.09941393  0.75459509  0.77531773     0.35900
H783        H  0.10261727  0.81827167  0.77162068     0.28600
H784        H  0.26320088  0.82260796  0.80831976     0.32800
H785        H  0.26989393  0.97832372  0.80203862     0.35700
H786        H  0.26761661  0.84022622  0.77236545     0.28300
H787        H  0.06878818  0.80204835  0.77633879     0.41200
H788        H  0.04975398  0.74384157  0.79833061     0.31200
H789        H  0.08525189  0.70179050  0.79380709     0.38800
H790        H  0.28063957  0.96473731  0.78798936     0.30700
H791        H  0.12294886  0.86754419  0.80857020     0.30800
H792        H  0.26175575  0.86141821  0.80861521     0.31000
Zr793      Zr  0.51558009  0.43902756  0.54876085     2.17500
O794        O  0.56566042  0.45932387  0.55654200    -0.51300
O795        O  0.50897746  0.37577085  0.54658858    -0.74500
O796        O  0.48932635  0.40740399  0.55839335    -0.81300
O797        O  0.59008869  0.48889172  0.53625103    -0.83100
O798        O  0.43052837  0.40283593  0.55984806    -0.78700
O799        O  0.58107724  0.45958853  0.54547613    -0.90300
O800        O  0.45848355  0.34465429  0.54004094    -0.76300
O801        O  0.44741809  0.39939762  0.54742093    -0.85800
O802        O  0.50582592  0.42796675  0.53812993    -0.85500
O803        O  0.48809403  0.47608837  0.55289339    -0.72200
O804        O  0.54213576  0.50251031  0.54435148    -0.84400
Zr805      Zr  0.43531866  0.48730439  0.53590337     2.26400
Zr806      Zr  0.41959697  0.43616032  0.55131503     2.06300
Zr807      Zr  0.53175489  0.49075244  0.53370251     2.10000
Zr808      Zr  0.43752030  0.38918294  0.53678814     1.78800
O809        O  0.58747928  0.55432214  0.53154433    -0.93200
O810        O  0.37725579  0.33313848  0.54020033    -0.41000
O811        O  0.46359919  0.45109074  0.53193431    -0.77600
O812        O  0.40795108  0.42450705  0.54061258    -0.96300
O813        O  0.44462199  0.49835989  0.54656896    -0.89600
O814        O  0.50334669  0.52721327  0.53737108    -0.92400
C815        C  0.48570892  0.34635470  0.54335812     1.01300
C816        C  0.60166316  0.47696304  0.54077700     1.14200
C817        C  0.45823269  0.39677628  0.56145948     1.05000
O818        O  0.35935517  0.37531836  0.55294140    -0.94600
O819        O  0.36582227  0.44798015  0.54943827    -0.90300
O820        O  0.37649772  0.48000711  0.54041123    -0.83500
C821        C  0.35664313  0.46467970  0.54526360     1.11700
O822        O  0.55990062  0.56226642  0.55619534    -0.96600
Zr823      Zr  0.51231262  0.53829831  0.54800087     1.88900
O824        O  0.44864702  0.55361888  0.53645435    -0.73200
O825        O  0.41186585  0.46557439  0.56053279    -0.52500
O826        O  0.48818441  0.55614391  0.55690531    -0.97200
O827        O  0.57362799  0.59480998  0.54501212    -0.54400
O828        O  0.49334024  0.58381350  0.54391247    -0.73700
C829        C  0.47034571  0.58321875  0.53973498     0.98600
O830        O  0.38118494  0.46132503  0.52875591    -0.62600
O831        O  0.54378966  0.46087677  0.52492555    -0.57400
O832        O  0.45685937  0.50734651  0.52546049    -0.94000
O833        O  0.51746940  0.51513189  0.52462364    -0.92500
O834        O  0.45531140  0.36674693  0.52769824    -0.92800
O835        O  0.38829021  0.36629340  0.52886413    -0.91600
C836        C  0.48809679  0.51621838  0.52249228     1.17500
H837        H  0.51924662  0.41524769  0.53654523     0.33400
H838        H  0.38034561  0.40992878  0.53983428     0.44300
H839        H  0.51370402  0.55129609  0.53512242     0.37800
H840        H  0.49349837  0.47998165  0.55719942     0.34300
H841        H  0.37707458  0.31063676  0.53824755     0.26000
H842        H  0.38605214  0.44621241  0.56213817     0.32000
H843        H  0.49230203  0.58233252  0.55598948     0.37900
H844        H  0.47730872  0.39040539  0.52592421     0.32400
H845        H  0.56739008  0.48208455  0.52299506     0.31200
H846        H  0.60125127  0.54983754  0.52816770     0.32900
H847        H  0.56802927  0.60414712  0.54117493     0.31900
H848        H  0.39754258  0.38823470  0.52596095     0.35900
H849        H  0.38868929  0.44944627  0.52545719     0.28600
H850        H  0.56317212  0.43512123  0.55825693     0.32800
H851        H  0.56582446  0.58921778  0.55695615     0.35700
H852        H  0.55227887  0.44324857  0.52662972     0.28300
H853        H  0.35971455  0.43873780  0.53085355     0.41200
H854        H  0.34600414  0.36910900  0.54896072     0.31200
H855        H  0.38136142  0.33036039  0.54457121     0.38800
H856        H  0.59034243  0.58409858  0.54376734     0.30700
H857        H  0.43054618  0.46538199  0.56348810     0.30800
H858        H  0.55735916  0.47044403  0.55985081     0.31000
Zr859      Zr  0.55129290  0.49579776  0.46547854     2.17500
O860        O  0.59547859  0.51469843  0.47412225    -0.51300
O861        O  0.54202059  0.42993138  0.46486900    -0.74500
O862        O  0.51717096  0.47541265  0.47522054    -0.81300
O863        O  0.63809186  0.54983911  0.45491202    -0.83100
O864        O  0.45533170  0.46335880  0.47386097    -0.78700
O865        O  0.61931830  0.51469435  0.46368992    -0.90300
O866        O  0.50928252  0.40296021  0.45613701    -0.76300
O867        O  0.48721799  0.45327837  0.46188900    -0.85800
O868        O  0.55623652  0.48834082  0.45484514    -0.85500
O869        O  0.51541687  0.52881165  0.46757528    -0.72200
O870        O  0.57892659  0.56028215  0.46124241    -0.84400
Zr871      Zr  0.48274956  0.54151147  0.44881218     2.26400
Zr872      Zr  0.45148957  0.48589875  0.46380326     2.06300
Zr873      Zr  0.58306550  0.55176455  0.45057130     2.10000
Zr874      Zr  0.49240313  0.44682079  0.45123012     1.78800
O875        O  0.63922053  0.61687989  0.45036749    -0.93200
O876        O  0.43035795  0.38808373  0.45300391    -0.41000
O877        O  0.51943810  0.50980551  0.44664654    -0.77600
O878        O  0.45449677  0.47725338  0.45308198    -0.96300
O879        O  0.47753732  0.54897793  0.45942681    -0.89600
O880        O  0.54678662  0.58377155  0.45246002    -0.92400
C881        C  0.52651467  0.40201002  0.46099998     1.01300
C882        C  0.64457290  0.53427582  0.45954930     1.14200
C883        C  0.48284052  0.46532557  0.47714519     1.05000
O884        O  0.39750617  0.41961662  0.46444162    -0.94600
O885        O  0.39683727  0.48816565  0.45948160    -0.90300
O886        O  0.41450600  0.52231442  0.45059253    -0.83500
C887        C  0.38970207  0.50284647  0.45480092     1.11700
O888        O  0.57683073  0.61681174  0.47246302    -0.96600
Zr889      Zr  0.54105792  0.59143892  0.46301201     1.88900
O890        O  0.48437788  0.60296122  0.44985076    -0.73200
O891        O  0.42354437  0.51129823  0.47108167    -0.52500
O892        O  0.50283827  0.60065354  0.47082040    -0.97200
O893        O  0.60115384  0.65258848  0.46142870    -0.54400
O894        O  0.51842545  0.63245642  0.45839656    -0.73700
C895        C  0.49831608  0.63075255  0.45370873     0.98600
O896        O  0.44479174  0.51920948  0.43947846    -0.62600
O897        O  0.60716695  0.52691768  0.44257336    -0.57400
O898        O  0.52204431  0.57628737  0.43993423    -0.94000
O899        O  0.58073756  0.57976126  0.44094249    -0.92500
O900        O  0.52651525  0.43195371  0.44342233    -0.92800
O901        O  0.45839070  0.42154683  0.44165751    -0.91600
C902        C  0.55648034  0.58618985  0.43806352     1.17500
H903        H  0.57261666  0.47731899  0.45404370     0.33400
H904        H  0.42879604  0.46104149  0.45146560     0.44300
H905        H  0.55849275  0.60869320  0.45043647     0.37800
H906        H  0.51471777  0.53320524  0.47187468     0.34300
H907        H  0.43284871  0.36724782  0.45096599     0.26000
H908        H  0.40197328  0.48807166  0.47303549     0.32000
H909        H  0.48030706  0.59915543  0.46865185     0.37900
H910        H  0.54880012  0.43246187  0.44551508     0.32400
H911        H  0.63527556  0.54587682  0.44230210     0.31200
H912        H  0.65613137  0.61605871  0.44713319     0.32900
H913        H  0.59736075  0.66330723  0.45758723     0.31900
H914        H  0.43706218  0.42759058  0.44171333     0.35900
H915        H  0.46120591  0.51477707  0.43657179     0.28600
H916        H  0.58784978  0.49050139  0.47642937     0.32800
H917        H  0.57883035  0.64245276  0.47303277     0.35700
H918        H  0.60585421  0.50328971  0.44430664     0.28300
H919        H  0.42341171  0.49276195  0.44044320     0.41200
H920        H  0.38687964  0.41338867  0.46026646     0.31200
H921        H  0.43031020  0.38251289  0.45739665     0.38800
H922        H  0.62067218  0.64493044  0.46042212     0.30700
H923        H  0.44329906  0.52357985  0.47431255     0.30800
H924        H  0.58840401  0.53029682  0.47678035     0.31000
Zr925      Zr  0.55354349  0.04566137  0.55210944     2.17500
O926        O  0.53794465  0.07001257  0.56122114    -0.51300
O927        O  0.62088179  0.09589736  0.55135482    -0.74500
O928        O  0.58252961  0.03431352  0.56105872    -0.81300
O929        O  0.52315475  0.09697552  0.54069320    -0.83100
O930        O  0.56898351  0.97159929  0.56096644    -0.78700
O931        O  0.54765435  0.10233907  0.55023210    -0.90300
O932        O  0.64758863  0.08209109  0.54327736    -0.76300
O933        O  0.58321891  0.00870900  0.54948490    -0.85800
O934        O  0.56830310  0.05706891  0.54153945    -0.85500
O935        O  0.50579051  0.98016076  0.55458051    -0.72200
O936        O  0.49301202  0.02505023  0.54699989    -0.84400
Zr937      Zr  0.49001668  0.93037790  0.53605142     2.26400
Zr938      Zr  0.53535706  0.94301547  0.55161331     2.06300
Zr939      Zr  0.50804947  0.03431504  0.53638876     2.10000
Zr940      Zr  0.59814097  0.02018715  0.53898435     1.78800
O941        O  0.44761986  0.03441137  0.53465903    -0.93200
O942        O  0.64877384  0.00631577  0.54212172    -0.41000
O943        O  0.53765146  0.99660671  0.53377767    -0.77600
O944        O  0.55153415  0.95309538  0.54102326    -0.96300
O945        O  0.47487765  0.92058876  0.54659309    -0.89600
O946        O  0.46037001  0.96822210  0.53849545    -0.92400
C947        C  0.64911631  0.10377458  0.54772947     1.01300
C948        C  0.53659142  0.11507858  0.54574623     1.14200
C949        C  0.58422615  0.00539567  0.56333700     1.05000
O950        O  0.58724939  0.92820162  0.55317856    -0.94600
O951        O  0.51830974  0.87957039  0.54788336    -0.90300
O952        O  0.49062327  0.87056112  0.53854580    -0.83500
C953        C  0.50281820  0.85935779  0.54311386     1.11700
O954        O  0.42531971  0.98772291  0.55693731    -0.96600
Zr955      Zr  0.44626243  0.95883486  0.54911760     1.88900
O956        O  0.42090828  0.88259257  0.53677874    -0.73200
O957        O  0.49395913  0.89869668  0.55954133    -0.52500
O958        O  0.42072390  0.91774121  0.55810541    -0.97200
O959        O  0.39450714  0.97162816  0.54617665    -0.54400
O960        O  0.39696815  0.89691837  0.54515263    -0.73700
C961        C  0.39366522  0.87521468  0.54062332     0.98600
O962        O  0.50654385  0.90079569  0.52765811    -0.62600
O963        O  0.54084587  0.08458065  0.52868378    -0.57400
O964        O  0.47534943  0.94676539  0.52607345    -0.94000
O965        O  0.49737744  0.01169161  0.52592868    -0.92500
O966        O  0.62150961  0.06394652  0.53026442    -0.92800
O967        O  0.62208050  0.99707358  0.53072639    -0.91600
C968        C  0.48435977  0.97868100  0.52330357     1.17500
H969        H  0.58507114  0.08427322  0.54063371     0.33400
H970        H  0.56266571  0.93742759  0.53977729     0.44300
H971        H  0.43730670  0.96014639  0.53608196     0.37800
H972        H  0.50075646  0.97772034  0.55890498     0.34300
H973        H  0.67342361  0.03005894  0.54107529     0.26000
H974        H  0.50755344  0.88476425  0.56085894     0.32000
H975        H  0.39218811  0.90572021  0.55776205     0.37900
H976        H  0.59801514  0.05710070  0.52783179     0.32400
H977        H  0.52463303  0.09691173  0.52823231     0.31200
H978        H  0.44834101  0.04089982  0.53029282     0.32900
H979        H  0.37045661  0.94916323  0.54776767     0.31900
H980        H  0.59835068  0.97630431  0.52878149     0.35900
H981        H  0.51832613  0.92079352  0.52443290     0.28600
H982        H  0.56328077  0.08780348  0.56312046     0.32800
H983        H  0.44970899  0.00942542  0.55856254     0.35700
H984        H  0.56500829  0.10458868  0.53063526     0.28300
H985        H  0.52873764  0.89829478  0.52913080     0.41200
H986        H  0.59720160  0.92817028  0.54905077     0.31200
H987        H  0.64797257  0.00606445  0.54662240     0.38800
H988        H  0.39217719  0.96857602  0.54170844     0.30700
H989        H  0.49633132  0.91537344  0.56303720     0.30800
H990        H  0.52542909  0.04750267  0.56402391     0.31000
Zr991      Zr  0.52326388  0.06597493  0.46220605     2.17500
O992        O  0.52980397  0.11793764  0.46887193    -0.51300
O993        O  0.59344787  0.10629989  0.46078488    -0.74500
O994        O  0.53294930  0.05649343  0.47297375    -0.81300
O995        O  0.48672625  0.10553132  0.44954789    -0.83100
O996        O  0.51733455  0.99376123  0.47439091    -0.78700
O997        O  0.51440305  0.11952632  0.45891792    -0.90300
O998        O  0.61434779  0.07584088  0.45437346    -0.76300
O999        O  0.54668520  0.02155303  0.46124771    -0.85800
O1000       O  0.53631090  0.06438417  0.45163428    -0.85500
O1001       O  0.47085613  0.00527951  0.46595147    -0.72200
O1002       O  0.46237962  0.04408727  0.45705113    -0.84400
Zr1003     Zr  0.44768197  0.93597671  0.44902917     2.26400
Zr1004     Zr  0.49452060  0.96078296  0.46476806     2.06300
Zr1005     Zr  0.47579819  0.04189051  0.44651024     2.10000
Zr1006     Zr  0.55816432  0.01869317  0.45066629     1.78800
O1007       O  0.43146486  0.06126389  0.44224196    -0.93200
O1008       O  0.60178980  0.99685452  0.45442080    -0.41000
O1009       O  0.49868683  0.99692889  0.44518154    -0.77600
O1010       O  0.50811315  0.95748922  0.45424234    -0.96300
O1011       O  0.43453039  0.93808184  0.45955017    -0.89600
O1012       O  0.42457071  0.98080639  0.45007364    -0.92400
C1013       C  0.62013374  0.10396903  0.45783109     1.01300
C1014       C  0.50075280  0.12769496  0.45420376     1.14200
C1015       C  0.52826309  0.02803023  0.47635601     1.05000
O1016       O  0.54807296  0.95123554  0.46781389    -0.94600
O1017       O  0.47454441  0.89395092  0.46253970    -0.90300
O1018       O  0.44910804  0.87895193  0.45298963    -0.83500
C1019       C  0.46016186  0.87080336  0.45802094     1.11700
O1020       O  0.39766529  0.02347780  0.46709440    -0.96600
Zr1021     Zr  0.41132955  0.98237752  0.46052966     1.88900
O1022       O  0.37986188  0.89076812  0.45099375    -0.73200
O1023       O  0.45179292  0.91881986  0.47279648    -0.52500
O1024       O  0.38530983  0.94991026  0.47023171    -0.97200
O1025       O  0.36272977  0.99595644  0.45624327    -0.54400
O1026       O  0.35840467  0.91803108  0.45795101    -0.73700
C1027       C  0.35361147  0.89008522  0.45447466     0.98600
O1028       O  0.46026473  0.90157143  0.44096665    -0.62600
O1029       O  0.52324458  0.07888195  0.43863493    -0.57400
O1030       O  0.41961607  0.93952483  0.43928520    -0.94000
O1031       O  0.43983894  0.00350606  0.43774011    -0.92500
O1032       O  0.58904286  0.05689065  0.44157646    -0.92800
O1033       O  0.57191238  0.98074315  0.44344471    -0.91600
C1034       C  0.42139978  0.96771761  0.43612418     1.17500
H1035       H  0.55533581  0.08970179  0.45014138     0.33400
H1036       H  0.51723144  0.93932227  0.45365941     0.44300
H1037       H  0.40098347  0.97263825  0.44780907     0.37800
H1038       H  0.46486850  0.00724675  0.47014181     0.34300
H1039       H  0.62758299  0.01562318  0.45273555     0.26000
H1040       H  0.46882009  0.91387859  0.47549323     0.32000
H1041       H  0.35684244  0.93838205  0.46986858     0.37900
H1042       H  0.61644700  0.06323195  0.44186095     0.32400
H1043       H  0.51090304  0.06559725  0.43478706     0.31200
H1044       H  0.44421687  0.07540883  0.43845042     0.32900
H1045       H  0.34440014  0.97219971  0.45401621     0.31900
H1046       H  0.54784731  0.96660061  0.44102757     0.35900
H1047       H  0.47257499  0.92086195  0.43765338     0.28600
H1048       H  0.55454066  0.12724753  0.47109145     0.32800
H1049       H  0.36981583  0.00784406  0.46816492     0.35700
H1050       H  0.52338973  0.10383553  0.43842163     0.28300
H1051       H  0.48157689  0.89785968  0.44251751     0.41200
H1052       H  0.55216862  0.93798477  0.46432481     0.31200
H1053       H  0.60412146  0.00241023  0.45883405     0.38800
H1054       H  0.37666626  0.01551236  0.45302089     0.30700
H1055       H  0.44488097  0.93545733  0.47522112     0.30800
H1056       H  0.50916360  0.10534743  0.47198771     0.31000
Zr1057     Zr  0.93415185  0.46670797  0.55089880     2.17500
O1058       O  0.90243531  0.41351297  0.55818081    -0.51300
O1059       O  0.87825374  0.47480162  0.54983485    -0.74500
O1060       O  0.93072555  0.49082895  0.56095210    -0.81300
O1061       O  0.90869216  0.39924473  0.53728900    -0.83100
O1062       O  0.98607709  0.54837762  0.56248383    -0.78700
O1063       O  0.88984121  0.40204887  0.54696417    -0.90300
O1064       O  0.89491470  0.52737870  0.54381841    -0.76300
O1065       O  0.96433429  0.53560175  0.55057178    -0.85800
O1066       O  0.93090838  0.48323823  0.54055449    -0.85500
O1067       O  0.99890725  0.49079253  0.55467977    -0.72200
O1068       O  0.96849279  0.44247127  0.54510075    -0.84400
Zr1069     Zr  0.06132564  0.55270935  0.53783042     2.26400
Zr1070     Zr  0.02963959  0.56019082  0.55392445     2.06300
Zr1071     Zr  0.96643138  0.46045055  0.53477316     2.10000
Zr1072     Zr  0.96116112  0.55214550  0.54033085     1.78800
O1073       O  0.98184752  0.41219869  0.53098522    -0.93200
O1074       O  0.96202029  0.60681510  0.54547143    -0.41000
O1075       O  0.99623031  0.52948495  0.53438163    -0.77600
O1076       O  0.02720834  0.57812271  0.54356802    -0.96300
O1077       O  0.06455121  0.53660570  0.54817533    -0.89600
O1078       O  0.03131862  0.48384707  0.53818840    -0.92400
C1079       C  0.87076564  0.49884634  0.54713533     1.01300
C1080       C  0.88631108  0.38426576  0.54191741     1.14200
C1081       C  0.95208541  0.52138630  0.56409921     1.05000
O1082       O  0.03549249  0.61951351  0.55810141    -0.94600
O1083       O  0.09272282  0.61790160  0.55199758    -0.90300
O1084       O  0.11134287  0.61169390  0.54249163    -0.83500
C1085       C  0.11687188  0.62989622  0.54752838     1.11700
O1086       O  0.00302713  0.41120962  0.55528464    -0.96600
Zr1087     Zr  0.03346425  0.46785777  0.54861230     1.88900
O1088       O  0.11423166  0.53816683  0.53787055    -0.73200
O1089       O  0.06689773  0.55449214  0.56224524    -0.52500
O1090       O  0.07278874  0.48274277  0.55777156    -0.97200
O1091       O  0.03483359  0.41144288  0.54458037    -0.54400
O1092       O  0.09808419  0.49030566  0.54484382    -0.73700
C1093       C  0.12140754  0.51498599  0.54096028     0.98600
O1094       O  0.09291611  0.60661867  0.53064773    -0.62600
O1095       O  0.91828670  0.44486557  0.52680097    -0.57400
O1096       O  0.05738714  0.53963580  0.52694873    -0.94000
O1097       O  0.99703885  0.48901666  0.52503440    -0.92500
O1098       O  0.92417075  0.54210314  0.53103155    -0.92800
O1099       O  0.98731378  0.60980820  0.53391456    -0.91600
C1100       C  0.03036305  0.51678817  0.52331174     1.17500
H1101       H  0.90453561  0.47106575  0.53909903     0.33400
H1102       H  0.04031036  0.60604978  0.54318449     0.44300
H1103       H  0.04461761  0.47478267  0.53556762     0.37800
H1104       H  0.99807349  0.48296319  0.55887457     0.34300
H1105       H  0.93910764  0.60754249  0.54387223     0.26000
H1106       H  0.09288795  0.56313324  0.56048376     0.32000
H1107       H  0.09152635  0.47383367  0.55689773     0.37900
H1108       H  0.92475874  0.52026783  0.52898008     0.32400
H1109       H  0.91209808  0.41890195  0.52532170     0.31200
H1110       H  0.97374499  0.40858118  0.52666892     0.32900
H1111       H  0.05810468  0.41253568  0.54641620     0.31900
H1112       H  0.01269110  0.61374548  0.53250444     0.35900
H1113       H  0.08893548  0.62750330  0.53231214     0.28600
H1114       H  0.87977483  0.41501418  0.55970733     0.32800
H1115       H  0.02431384  0.40721888  0.55676029     0.35700
H1116       H  0.89445304  0.44047686  0.52892217     0.28300
H1117       H  0.12112654  0.61640857  0.53101649     0.41200
H1118       H  0.02714307  0.63042031  0.55475968     0.31200
H1119       H  0.95525284  0.59836370  0.54975532     0.38800
H1120       H  0.04150656  0.41729318  0.54022248     0.30700
H1121       H  0.07098727  0.57547808  0.56508558     0.30800
H1122       H  0.92031763  0.42085863  0.56168766     0.31000
Zr1123     Zr  0.94796894  0.45904444  0.46441529     2.17500
O1124       O  0.92405227  0.41562574  0.47319868    -0.51300
O1125       O  0.89636919  0.47515502  0.46481079    -0.74500
O1126       O  0.96504844  0.49377206  0.47400432    -0.81300
O1127       O  0.89517960  0.37340767  0.45364164    -0.83100
O1128       O  0.02583078  0.54595475  0.47326312    -0.78700
O1129       O  0.89257646  0.39500446  0.46311106    -0.90300
O1130       O  0.90342616  0.51321896  0.45664611    -0.76300
O1131       O  0.97702971  0.52503811  0.46130003    -0.85800
O1132       O  0.92992917  0.45761708  0.45406732    -0.85500
O1133       O  0.01631779  0.48405001  0.46589361    -0.72200
O1134       O  0.97221363  0.42246593  0.45914341    -0.84400
Zr1135     Zr  0.05265671  0.51404932  0.44673930     2.26400
Zr1136     Zr  0.04517591  0.55017636  0.46256881     2.06300
Zr1137     Zr  0.95477689  0.42239982  0.44872472     2.10000
Zr1138     Zr  0.95981745  0.52321439  0.45087633     1.78800
O1139       O  0.94753021  0.35823137  0.44755725    -0.93200
O1140       O  0.96913748  0.58767553  0.45276370    -0.41000
O1141       O  0.98430731  0.48823368  0.44524139    -0.77600
O1142       O  0.02837325  0.55043284  0.45207466    -0.96300
O1143       O  0.07008990  0.51527674  0.45713060    -0.89600
O1144       O  0.02304325  0.44813784  0.44997767    -0.92400
C1145       C  0.88583272  0.49493800  0.46150702     1.01300
C1146       C  0.87889130  0.36979421  0.45885105     1.14200
C1147       C  0.99504478  0.52292310  0.47628797     1.05000
O1148       O  0.04132148  0.60895064  0.46388291    -0.94600
O1149       O  0.10344178  0.59995651  0.45755608    -0.90300
O1150       O  0.10758809  0.57910960  0.44809015    -0.83500
C1151       C  0.12006887  0.60446114  0.45236049     1.11700
O1152       O  0.01936274  0.40462602  0.46886221    -0.96600
Zr1153     Zr  0.04106345  0.44955562  0.46027380     1.88900
O1154       O  0.10902132  0.50573498  0.44708222    -0.73200
O1155       O  0.10182535  0.57285970  0.46911058    -0.52500
O1156       O  0.08973094  0.47286579  0.46828643    -0.97200
O1157       O  0.03501767  0.38770775  0.45729911    -0.54400
O1158       O  0.10324463  0.46873780  0.45535060    -0.73700
C1159       C  0.12168542  0.48904583  0.45066154     0.98600
O1160       O  0.06677271  0.55180839  0.43737049    -0.62600
O1161       O  0.90421293  0.41110102  0.44141478    -0.57400
O1162       O  0.04116854  0.47360673  0.43772487    -0.94000
O1163       O  0.98141553  0.42005622  0.43885059    -0.92500
O1164       O  0.90724933  0.49408552  0.44351217    -0.92800
O1165       O  0.97556931  0.56462605  0.44191899    -0.91600
C1166       C  0.01309580  0.44081735  0.43588355     1.17500
H1167       H  0.90208013  0.44522131  0.45361021     0.33400
H1168       H  0.04075085  0.57670568  0.45054046     0.44300
H1169       H  0.03216225  0.43374970  0.44764215     0.37800
H1170       H  0.02183359  0.48249131  0.47012392     0.34300
H1171       H  0.94466390  0.58620904  0.45142027     0.26000
H1172       H  0.10331828  0.59516829  0.47134132     0.32000
H1173       H  0.10727867  0.50058910  0.46730290     0.37900
H1174       H  0.89268037  0.50807189  0.44405686     0.32400
H1175       H  0.91723647  0.43195900  0.43834248     0.31200
H1176       H  0.92724348  0.34544293  0.44441408     0.32900
H1177       H  0.05315237  0.39377652  0.45384458     0.31900
H1178       H  0.98167681  0.55098418  0.43872276     0.35900
H1179       H  0.04279150  0.53809938  0.43491985     0.28600
H1180       H  0.90759324  0.42337519  0.47550299     0.32800
H1181       H  0.03957177  0.39726874  0.46942226     0.35700
H1182       H  0.89890974  0.38710331  0.43926495     0.28300
H1183       H  0.06762676  0.57620154  0.43857598     0.41200
H1184       H  0.04515375  0.62024178  0.45974870     0.31200
H1185       H  0.96873210  0.58960370  0.45724834     0.38800
H1186       H  0.00889783  0.37300455  0.45546207     0.30700
H1187       H  0.09446323  0.55234183  0.47223158     0.30800
H1188       H  0.94694135  0.42300589  0.47581628     0.31000
Zr1189     Zr  0.15396229  0.25826967  0.28310259     2.17500
O1190       O  0.11231134  0.23233020  0.27420119    -0.51300
O1191       O  0.16673609  0.20506921  0.28483246    -0.74500
O1192       O  0.19186481  0.26607927  0.27389639    -0.81300
O1193       O  0.07273969  0.21655265  0.29466146    -0.83100
O1194       O  0.24262675  0.32808832  0.27371022    -0.78700
O1195       O  0.08768861  0.20602532  0.28511148    -0.90300
O1196       O  0.21417269  0.22566858  0.29199343    -0.76300
O1197       O  0.22147559  0.29517668  0.28541568    -0.85800
O1198       O  0.15940484  0.25106049  0.29376706    -0.85500
O1199       O  0.17467827  0.32433715  0.28023931    -0.72200
O1200       O  0.11711167  0.28323063  0.28802987    -0.84400
Zr1201     Zr  0.21093515  0.37881856  0.29838256     2.26400
Zr1202     Zr  0.24196892  0.36121461  0.28289940     2.06300
Zr1203     Zr  0.12401511  0.27708377  0.29868528     2.10000
Zr1204     Zr  0.22677811  0.28758842  0.29599486     1.78800
O1205       O  0.06762482  0.28370310  0.30095634    -0.93200
O1206       O  0.29039433  0.29973287  0.29268611    -0.41000
O1207       O  0.19146482  0.31323462  0.30107236    -0.77600
O1208       O  0.24878859  0.35423771  0.29356588    -0.96300
O1209       O  0.20555157  0.38646497  0.28774646    -0.89600
O1210       O  0.14337882  0.34281816  0.29611324    -0.92400
C1211       C  0.19045840  0.20045179  0.28822653     1.01300
C1212       C  0.06484970  0.19691073  0.28973552     1.14200
C1213       C  0.22250703  0.29405726  0.27143586     1.05000
O1214       O  0.30736558  0.37220762  0.28134936    -0.94600
O1215       O  0.29100153  0.42530015  0.28638569    -0.90300
O1216       O  0.27377166  0.43380208  0.29586986    -0.83500
C1217       C  0.29673903  0.44503439  0.29128230     1.11700
O1218       O  0.09246517  0.31901299  0.27707865    -0.96600
Zr1219     Zr  0.13844250  0.34916625  0.28538678     1.88900
O1220       O  0.18790403  0.42526963  0.29770747    -0.73200
O1221       O  0.24643755  0.40355105  0.27453314    -0.52500
O1222       O  0.15607362  0.39205876  0.27657353    -0.97200
O1223       O  0.07384573  0.33694419  0.28812896    -0.54400
O1224       O  0.14968597  0.41048782  0.28934717    -0.73700
C1225       C  0.16789375  0.43233057  0.29386296     0.98600
O1226       O  0.25603899  0.42277990  0.30599425    -0.62600
O1227       O  0.10454849  0.22545466  0.30622223    -0.57400
O1228       O  0.18939937  0.35981120  0.30890401    -0.94000
O1229       O  0.13879408  0.29803243  0.30911543    -0.92500
O1230       O  0.20920502  0.24475981  0.30479789    -0.92800
O1231       O  0.27314816  0.31324328  0.30431584    -0.91600
C1232       C  0.16418216  0.32918968  0.31172947     1.17500
H1233       H  0.14852431  0.22424400  0.29494815     0.33400
H1234       H  0.27565036  0.36936382  0.29474951     0.44300
H1235       H  0.12895139  0.35205979  0.29841825     0.37800
H1236       H  0.17177067  0.32584703  0.27589783     0.34300
H1237       H  0.28592547  0.28737471  0.28863909     0.26000
H1238       H  0.24445248  0.42489868  0.27648805     0.32000
H1239       H  0.17656870  0.41769491  0.27803399     0.37900
H1240       H  0.18894577  0.24788327  0.30691528     0.32400
H1241       H  0.07627874  0.21456105  0.30678537     0.31200
H1242       H  0.05524278  0.26647202  0.30450245     0.32900
H1243       H  0.07723843  0.35119207  0.29197169     0.31900
H1244       H  0.26662238  0.33106052  0.30648224     0.35900
H1245       H  0.24113109  0.43159266  0.30848131     0.28600
H1246       H  0.11855076  0.21323721  0.27241878     0.32800
H1247       H  0.08199229  0.33649806  0.27621483     0.35700
H1248       H  0.10706489  0.20467993  0.30417079     0.28300
H1249       H  0.26182497  0.40657523  0.30875130     0.41200
H1250       H  0.31779027  0.39055389  0.27788024     0.31200
H1251       H  0.30529197  0.32791848  0.29181746     0.38800
H1252       H  0.05944574  0.30922107  0.28932021     0.30700
H1253       H  0.27375603  0.41576608  0.27315289     0.30800
H1254       H  0.12233431  0.25398920  0.27123197     0.31000
Zr1255     Zr  0.09720291  0.24978225  0.37170299     2.17500
O1256       O  0.04421174  0.21019418  0.36475925    -0.51300
O1257       O  0.11693189  0.20174822  0.37313639    -0.74500
O1258       O  0.11915134  0.24853333  0.36140542    -0.81300
O1259       O  0.02290471  0.22110803  0.38452683    -0.83100
O1260       O  0.17411403  0.30624093  0.35980530    -0.78700
O1261       O  0.03720996  0.19905151  0.37591434    -0.90300
O1262       O  0.16309805  0.22274011  0.38048218    -0.76300
O1263       O  0.16542932  0.28255093  0.37324461    -0.85800
O1264       O  0.10639655  0.25204217  0.38243848    -0.85500
O1265       O  0.11979503  0.31221765  0.36713186    -0.72200
O1266       O  0.06530046  0.28263255  0.37578555    -0.84400
Zr1267     Zr  0.16933997  0.38404792  0.38342585     2.26400
Zr1268     Zr  0.18837595  0.34540271  0.36888676     2.06300
Zr1269     Zr  0.07688868  0.28687857  0.38653993     2.10000
Zr1270     Zr  0.17436362  0.28565759  0.38397427     1.78800
O1271       O  0.01615150  0.28579827  0.38856738    -0.93200
O1272       O  0.23906047  0.29594856  0.38191521    -0.41000
O1273       O  0.14570335  0.32142643  0.38814192    -0.77600
O1274       O  0.19988550  0.34919776  0.37961475    -0.96300
O1275       O  0.15848352  0.38011852  0.37277124    -0.89600
O1276       O  0.10071592  0.34962252  0.38204838    -0.92400
C1277       C  0.14093736  0.19781167  0.37652677     1.01300
C1278       C  0.01550867  0.19476033  0.38050413     1.14200
C1279       C  0.14723793  0.27277517  0.35804024     1.05000
O1280       O  0.24575032  0.33925962  0.36734628    -0.94600
O1281       O  0.24312071  0.40937586  0.37077667    -0.90300
O1282       O  0.23238910  0.43348837  0.37948038    -0.83500
C1283       C  0.25321274  0.43570443  0.37484804     1.11700
O1284       O  0.04253274  0.31511384  0.36332860    -0.96600
Zr1285     Zr  0.08998578  0.34587908  0.37143206     1.88900
O1286       O  0.15688248  0.43641464  0.38060414    -0.73200
O1287       O  0.20180359  0.38741639  0.36005657    -0.52500
O1288       O  0.10566595  0.38307567  0.36200305    -0.97200
O1289       O  0.02749992  0.33680325  0.37478872    -0.54400
O1290       O  0.10640010  0.41133968  0.37395769    -0.73700
C1291       C  0.13215132  0.43908230  0.37715399     0.98600
O1292       O  0.21742715  0.41546229  0.39145199    -0.62600
O1293       O  0.07427860  0.25129144  0.39572686    -0.57400
O1294       O  0.14053851  0.38980928  0.39281181    -0.94000
O1295       O  0.08583914  0.33214007  0.39480797    -0.92500
O1296       O  0.15128472  0.24624493  0.39318510    -0.92800
O1297       O  0.21959261  0.31216152  0.39243277    -0.91600
C1298       C  0.11064592  0.36778528  0.39606489     1.17500
H1299       H  0.09490010  0.22627242  0.38415666     0.33400
H1300       H  0.22737893  0.36350302  0.38042719     0.44300
H1301       H  0.08880957  0.36306197  0.38391406     0.37800
H1302       H  0.11401877  0.30996179  0.36284064     0.34300
H1303       H  0.23962571  0.27393221  0.38393390     0.26000
H1304       H  0.22035902  0.38354845  0.35756721     0.32000
H1305       H  0.13302680  0.40382896  0.36247247     0.37900
H1306       H  0.13866111  0.21897730  0.39179558     0.32400
H1307       H  0.09638404  0.27015354  0.39821729     0.31200
H1308       H  0.00517831  0.26884315  0.39218325     0.32900
H1309       H  0.03370255  0.35711882  0.37787981     0.31900
H1310       H  0.22415499  0.33886054  0.39292589     0.35900
H1311       H  0.20738016  0.39731978  0.39495011     0.28600
H1312       H  0.05055428  0.19114018  0.36298696     0.32800
H1313       H  0.02912267  0.33037302  0.36296167     0.35700
H1314       H  0.05096652  0.24769507  0.39792569     0.28300
H1315       H  0.24043175  0.41396995  0.39011135     0.41200
H1316       H  0.23560159  0.31193660  0.36611742     0.31200
H1317       H  0.23897649  0.29069777  0.37751627     0.38800
H1318       H  0.01548546  0.31219985  0.37712377     0.30700
H1319       H  0.17742647  0.37523434  0.35768196     0.30800
H1320       H  0.04663606  0.22760461  0.36134914     0.31000
Zr1321     Zr  0.11417999  0.82520418  0.28077393     2.17500
O1322       O  0.11955505  0.86446559  0.27189016    -0.51300
O1323       O  0.04700158  0.80436303  0.28276112    -0.74500
O1324       O  0.08521184  0.78476459  0.27174884    -0.81300
O1325       O  0.15283056  0.91181061  0.29133274    -0.83100
O1326       O  0.09891567  0.73564993  0.27204080    -0.78700
O1327       O  0.12052628  0.88835272  0.28241366    -0.90300
O1328       O  0.02731053  0.76584905  0.29117238    -0.76300
O1329       O  0.08920087  0.75978459  0.28391913    -0.85800
O1330       O  0.10717612  0.82501447  0.29157478    -0.85500
O1331       O  0.16159384  0.80866808  0.27753004    -0.72200
O1332       O  0.17701127  0.86875599  0.28487275    -0.84400
Zr1333     Zr  0.19469862  0.78507562  0.29559760     2.26400
Zr1334     Zr  0.13727945  0.74343968  0.28104987     2.06300
Zr1335     Zr  0.17028971  0.86619163  0.29571550     2.10000
Zr1336     Zr  0.08235798  0.75952721  0.29463356     1.78800
O1337       O  0.23214251  0.92582327  0.29692816    -0.93200
O1338       O  0.03360190  0.69264781  0.29239792    -0.41000
O1339       O  0.14585004  0.80033721  0.29868562    -0.77600
O1340       O  0.12985861  0.74138889  0.29190547    -0.96300
O1341       O  0.20117231  0.78618324  0.28483711    -0.89600
O1342       O  0.21904483  0.85095223  0.29264799    -0.92400
C1343       C  0.02163749  0.78384580  0.28677419     1.01300
C1344       C  0.13560134  0.91439005  0.28654960     1.14200
C1345       C  0.08324291  0.75376267  0.26957700     1.05000
O1346       O  0.08367141  0.67705825  0.28028128    -0.94600
O1347       O  0.15599835  0.69758322  0.28477612    -0.90300
O1348       O  0.18585996  0.72073336  0.29384294    -0.83500
C1349       C  0.17225853  0.69496244  0.28965821     1.11700
O1350       O  0.23197149  0.89180454  0.27291084    -0.96600
Zr1351     Zr  0.22395654  0.85163144  0.28179838     1.88900
O1352       O  0.26408481  0.81071164  0.29338315    -0.73200
O1353       O  0.17292793  0.73740715  0.27251349    -0.52500
O1354       O  0.24853192  0.83230142  0.27311949    -0.97200
O1355       O  0.27156654  0.91974312  0.28348961    -0.54400
O1356       O  0.28088644  0.85141737  0.28526874    -0.73700
C1357       C  0.28869990  0.83399750  0.28943514     0.98600
O1358       O  0.21209687  0.75911548  0.30436965    -0.62600
O1359       O  0.14330912  0.88910188  0.30357183    -0.57400
O1360       O  0.20074070  0.80954795  0.30597171    -0.94000
O1361       O  0.18095919  0.85418042  0.30626979    -0.92500
O1362       O  0.06075846  0.78016814  0.30351010    -0.92800
O1363       O  0.06870987  0.71764483  0.30348159    -0.91600
C1364       C  0.19261464  0.83272426  0.30885028     1.17500
H1365       H  0.09005811  0.83454293  0.29276418     0.33400
H1366       H  0.12030665  0.71538069  0.29343256     0.44300
H1367       H  0.24362211  0.86775137  0.29456981     0.37800
H1368       H  0.16360869  0.80972381  0.27314171     0.34300
H1369       H  0.00957359  0.68904161  0.29435249     0.26000
H1370       H  0.19855994  0.74404935  0.27420834     0.32000
H1371       H  0.25527302  0.81320147  0.27476125     0.37900
H1372       H  0.08495383  0.79836585  0.30565990     0.32400
H1373       H  0.15784152  0.91776183  0.30323814     0.31200
H1374       H  0.23404916  0.93113725  0.30134796     0.32900
H1375       H  0.28495972  0.92026275  0.28731160     0.31900
H1376       H  0.09299440  0.73023430  0.30587982     0.35900
H1377       H  0.18922407  0.73336806  0.30523235     0.28600
H1378       H  0.09289505  0.85318706  0.27025695     0.32800
H1379       H  0.25955569  0.90335753  0.27170294     0.35700
H1380       H  0.11673293  0.88130568  0.30218168     0.28300
H1381       H  0.23243008  0.75359274  0.30291506     0.41200
H1382       H  0.07661018  0.66817034  0.28454156     0.31200
H1383       H  0.02860297  0.69241707  0.28798373     0.38800
H1384       H  0.25596089  0.93201972  0.28455350     0.30700
H1385       H  0.16007177  0.70916321  0.27173391     0.30800
H1386       H  0.13396643  0.85837272  0.26882384     0.31000
Zr1387     Zr  0.16047505  0.87780508  0.37077571     2.17500
O1388       O  0.17386242  0.93202410  0.36403919    -0.51300
O1389       O  0.09100425  0.85651698  0.37116921    -0.74500
O1390       O  0.15067743  0.85996287  0.35994885    -0.81300
O1391       O  0.19956628  0.95011838  0.38400449    -0.83100
O1392       O  0.15950918  0.80825464  0.35850572    -0.78700
O1393       O  0.17015272  0.93922271  0.37476861    -0.90300
O1394       O  0.06261080  0.80878297  0.37826436    -0.76300
O1395       O  0.12695882  0.80882301  0.37160605    -0.85800
O1396       O  0.14381018  0.86359199  0.38126881    -0.85500
O1397       O  0.20688483  0.85939119  0.36748559    -0.72200
O1398       O  0.22068940  0.90867484  0.37635114    -0.84400
Zr1399     Zr  0.21485340  0.80545369  0.38447175     2.26400
Zr1400     Zr  0.17287230  0.78983167  0.36844749     2.06300
Zr1401     Zr  0.20344214  0.89328198  0.38685572     2.10000
Zr1402     Zr  0.11118640  0.79483161  0.38212708     1.78800
O1403       O  0.25697977  0.95341413  0.39077895    -0.93200
O1404       O  0.06129279  0.73252908  0.37818329    -0.41000
O1405       O  0.16976752  0.82436107  0.38799213    -0.77600
O1406       O  0.15512304  0.77380541  0.37891180    -0.96300
O1407       O  0.23218565  0.81974964  0.37404941    -0.89600
O1408       O  0.24867888  0.87419466  0.38363244    -0.92400
C1409       C  0.06154875  0.83196437  0.37430990     1.01300
C1410       C  0.18551347  0.95992474  0.37954139     1.14200
C1411       C  0.15306140  0.83500555  0.35652096     1.05000
O1412       O  0.11144105  0.73331705  0.36565921    -0.94600
O1413       O  0.18275225  0.73544537  0.37113987    -0.90300
O1414       O  0.21478909  0.74959635  0.38019230    -0.83500
C1415       C  0.19966831  0.72808762  0.37552292     1.11700
O1416       O  0.29053658  0.94291934  0.36615589    -0.96600
Zr1417     Zr  0.26565257  0.88835245  0.37323607     1.88900
O1418       O  0.28240541  0.82306371  0.38410656    -0.73200
O1419       O  0.20983036  0.77928965  0.36058399    -0.52500
O1420       O  0.29175234  0.87551618  0.36406024    -0.97200
O1421       O  0.31753653  0.94810516  0.37760567    -0.54400
O1422       O  0.31171485  0.86919412  0.37677631    -0.73700
C1423       C  0.31156655  0.84549690  0.38077670     0.98600
O1424       O  0.19027998  0.75184829  0.39174073    -0.62600
O1425       O  0.15867658  0.89112539  0.39462525    -0.57400
O1426       O  0.23533760  0.82778206  0.39477902    -0.94000
O1427       O  0.23154686  0.88258747  0.39606837    -0.92500
O1428       O  0.08188209  0.80617199  0.39104159    -0.92800
O1429       O  0.08795126  0.74266050  0.38962003    -0.91600
C1430       C  0.24014573  0.85700989  0.39791549     1.17500
H1431       H  0.12732955  0.87360483  0.38259011     0.33400
H1432       H  0.14269094  0.74610377  0.37950053     0.44300
H1433       H  0.27162951  0.88587167  0.38613592     0.37800
H1434       H  0.21487796  0.86745518  0.36334466     0.34300
H1435       H  0.03682510  0.72841135  0.38004326     0.26000
H1436       H  0.19030146  0.76216112  0.35757348     0.32000
H1437       H  0.29170839  0.85102500  0.36491475     0.37900
H1438       H  0.10137524  0.81309451  0.39430541     0.32400
H1439       H  0.17550274  0.90663254  0.39802984     0.31200
H1440       H  0.24643757  0.95919448  0.39446095     0.32900
H1441       H  0.32868875  0.93974825  0.38090758     0.31900
H1442       H  0.10609358  0.73248055  0.38932156     0.35900
H1443       H  0.17472400  0.75733408  0.39467324     0.28600
H1444       H  0.15010149  0.92347106  0.36158377     0.32800
H1445       H  0.31817705  0.95087976  0.36550304     0.35700
H1446       H  0.14802148  0.90707895  0.39297386     0.28300
H1447       H  0.17066738  0.72885493  0.38949199     0.41200
H1448       H  0.10648253  0.71391961  0.36888108     0.31200
H1449       H  0.05892783  0.73745661  0.37383291     0.38800
H1450       H  0.30396967  0.95985027  0.37973541     0.30700
H1451       H  0.22475760  0.80462013  0.35848415     0.30800
H1452       H  0.19380888  0.93397099  0.36113371     0.31000
Zr1453     Zr  0.72909824  0.85746726  0.27993229     2.17500
O1454       O  0.74828926  0.83444421  0.27103868    -0.51300
O1455       O  0.78534250  0.92130933  0.28066703    -0.74500
O1456       O  0.72498411  0.89087866  0.27090248    -0.81300
O1457       O  0.76569936  0.81139019  0.29128729    -0.83100
O1458       O  0.66853449  0.89260306  0.27110192    -0.78700
O1459       O  0.77936553  0.84068336  0.28199723    -0.90300
O1460       O  0.77414862  0.95202191  0.28844671    -0.76300
O1461       O  0.69969637  0.89514930  0.28250235    -0.85800
O1462       O  0.74003369  0.87029294  0.29055946    -0.85500
O1463       O  0.66189652  0.81936552  0.27718488    -0.72200
O1464       O  0.69946770  0.79559551  0.28490578    -0.84400
Zr1465     Zr  0.61241865  0.80640648  0.29556298     2.26400
Zr1466     Zr  0.63219542  0.85678941  0.28012570     2.06300
Zr1467     Zr  0.70841141  0.80869047  0.29558506     2.10000
Zr1468     Zr  0.71089339  0.90806931  0.29302380     1.78800
O1469       O  0.69658713  0.74324070  0.29742605    -0.93200
O1470       O  0.70867032  0.96620452  0.29018188    -0.41000
O1471       O  0.67944030  0.84670495  0.29817410    -0.77600
O1472       O  0.64260216  0.86962059  0.29080163    -0.96300
O1473       O  0.60236561  0.79467666  0.28494532    -0.89600
O1474       O  0.64172713  0.76880343  0.29303243    -0.92400
C1475       C  0.79510781  0.95075402  0.28408319     1.01300
C1476       C  0.78626570  0.82379387  0.28643025     1.14200
C1477       C  0.70130259  0.90085827  0.26868535     1.05000
O1478       O  0.62632406  0.91472058  0.27918077    -0.94600
O1479       O  0.56766771  0.84281883  0.28369290    -0.90300
O1480       O  0.55535131  0.80824356  0.29248963    -0.83500
C1481       C  0.54567595  0.82358669  0.28821504     1.11700
O1482       O  0.65538504  0.73717577  0.27364423    -0.96600
Zr1483     Zr  0.63244054  0.75800801  0.28233682     1.88900
O1484       O  0.56081191  0.73833930  0.29532829    -0.73200
O1485       O  0.59070486  0.82415626  0.27144949    -0.52500
O1486       O  0.58636931  0.73615816  0.27395418    -0.97200
O1487       O  0.63704659  0.70041718  0.28464742    -0.54400
O1488       O  0.57103937  0.71243815  0.28681523    -0.73700
C1489       C  0.55119102  0.71045350  0.29153045     0.98600
O1490       O  0.58590794  0.83058113  0.30334061    -0.62600
O1491       O  0.76044687  0.83469292  0.30308284    -0.57400
O1492       O  0.62286888  0.78938014  0.30575484    -0.94000
O1493       O  0.68434491  0.79929397  0.30603443    -0.92500
O1494       O  0.75368252  0.92669008  0.30181010    -0.92800
O1495       O  0.69031522  0.93421641  0.30131007    -0.91600
C1496       C  0.65223608  0.79185012  0.30859682     1.17500
H1497       H  0.76733708  0.88384227  0.29152034     0.33400
H1498       H  0.62972081  0.88347572  0.29213419     0.44300
H1499       H  0.63041351  0.74489911  0.29532516     0.37800
H1500       H  0.65958049  0.81519336  0.27283474     0.34300
H1501       H  0.73282040  0.98796214  0.29186452     0.26000
H1502       H  0.56641461  0.80315758  0.27324934     0.32000
H1503       H  0.56454453  0.73926829  0.27542860     0.37900
H1504       H  0.75190522  0.90221721  0.30323925     0.32400
H1505       H  0.76801629  0.81456779  0.30354697     0.31200
H1506       H  0.70596800  0.74393407  0.30161887     0.32900
H1507       H  0.63119001  0.69550994  0.28904220     0.31900
H1508       H  0.67116722  0.91107690  0.30361153     0.35900
H1509       H  0.60621356  0.84237238  0.30650211     0.28600
H1510       H  0.77278183  0.85710548  0.26961977     0.32800
H1511       H  0.68298059  0.75740823  0.27318864     0.35700
H1512       H  0.78284882  0.85661578  0.30102826     0.28300
H1513       H  0.58576631  0.85318952  0.30146417     0.41200
H1514       H  0.62749319  0.92381264  0.28340310     0.31200
H1515       H  0.71273816  0.96848179  0.28572275     0.38800
H1516       H  0.66504990  0.70907663  0.28433202     0.30700
H1517       H  0.58349079  0.84299055  0.26984271     0.30800
H1518       H  0.72907126  0.83035458  0.26784595     0.31000
Zr1519     Zr  0.72320522  0.81123441  0.37029793     2.17500
O1520       O  0.75662280  0.78746174  0.36379794    -0.51300
O1521       O  0.77850543  0.87797691  0.37093550    -0.74500
O1522       O  0.72035885  0.82460492  0.35947546    -0.81300
O1523       O  0.75393597  0.77595667  0.38430735    -0.83100
O1524       O  0.66212113  0.82058920  0.35771651    -0.78700
O1525       O  0.77179931  0.79877310  0.37465948    -0.90300
O1526       O  0.76133341  0.90997668  0.37765154    -0.76300
O1527       O  0.69407542  0.85094500  0.37067581    -0.85800
O1528       O  0.72581995  0.82921168  0.38068491    -0.85500
O1529       O  0.65757996  0.76963304  0.36688294    -0.72200
O1530       O  0.68737330  0.75127891  0.37594024    -0.84400
Zr1531     Zr  0.59633937  0.77184030  0.38349014     2.26400
Zr1532     Zr  0.62857767  0.80989241  0.36737207     2.06300
Zr1533     Zr  0.69059779  0.77033042  0.38634941     2.10000
Zr1534     Zr  0.69613853  0.86822912  0.38110603     1.78800
O1535       O  0.68957425  0.71086947  0.38937639    -0.93200
O1536       O  0.69309116  0.92214551  0.37637253    -0.41000
O1537       O  0.66155202  0.81055862  0.38711298    -0.77600
O1538       O  0.63110961  0.83031736  0.37767936    -0.96300
O1539       O  0.59210595  0.75193703  0.37319644    -0.89600
O1540       O  0.62485573  0.73141036  0.38306424    -0.92400
C1541       C  0.78573212  0.90820245  0.37406628     1.01300
C1542       C  0.77763136  0.78689267  0.37977066     1.14200
C1543       C  0.69460425  0.82443937  0.35591758     1.05000
O1544       O  0.63770231  0.87204534  0.36387542    -0.94600
O1545       O  0.56791262  0.80853486  0.36938410    -0.90300
O1546       O  0.54877353  0.78639538  0.37904952    -0.83500
C1547       C  0.54472812  0.79976867  0.37392960     1.11700
O1548       O  0.64222587  0.67865261  0.36590151    -0.96600
Zr1549     Zr  0.62070233  0.71201803  0.37281521     1.88900
O1550       O  0.53988843  0.70790968  0.38292872    -0.73200
O1551       O  0.58119323  0.77310141  0.35951512    -0.52500
O1552       O  0.58225396  0.68978238  0.36354687    -0.97200
O1553       O  0.62198684  0.65708289  0.37753915    -0.54400
O1554       O  0.55379013  0.67217677  0.37640811    -0.73700
C1555       C  0.53082085  0.67669945  0.38001236     0.98600
O1556       O  0.57206595  0.80162657  0.39065859    -0.62600
O1557       O  0.73028814  0.80718497  0.39496356    -0.57400
O1558       O  0.59383121  0.74770829  0.39373802    -0.94000
O1559       O  0.64918884  0.74523311  0.39536608    -0.92500
O1560       O  0.73380339  0.89517241  0.39035066    -0.92800
O1561       O  0.66978021  0.89758119  0.38791173    -0.91600
C1562       C  0.61566834  0.73968429  0.39701048     1.17500
H1563       H  0.75229214  0.84349214  0.38210746     0.33400
H1564       H  0.61898978  0.84606317  0.37804244     0.44300
H1565       H  0.61099872  0.70869899  0.38560039     0.37800
H1566       H  0.65749984  0.76106694  0.36278172     0.34300
H1567       H  0.71536818  0.94571050  0.37809429     0.26000
H1568       H  0.58374895  0.79271159  0.35648314     0.32000
H1569       H  0.55880897  0.69171209  0.36439231     0.37900
H1570       H  0.75965526  0.89832759  0.38947781     0.32400
H1571       H  0.74436322  0.79355640  0.39618575     0.31200
H1572       H  0.70272789  0.71692431  0.39337480     0.32900
H1573       H  0.60304278  0.64870801  0.38092354     0.31900
H1574       H  0.65288046  0.87645609  0.39074989     0.35900
H1575       H  0.58977644  0.80937911  0.39419226     0.28600
H1576       H  0.77563004  0.81013278  0.36139220     0.32800
H1577       H  0.62015820  0.65178619  0.36559106     0.35700
H1578       H  0.75057848  0.83204679  0.39320704     0.28300
H1579       H  0.57809758  0.82664382  0.38875809     0.41200
H1580       H  0.61872253  0.86537863  0.36053799     0.31200
H1581       H  0.70029947  0.92197811  0.37206731     0.38800
H1582       H  0.64759213  0.66854894  0.37955515     0.30700
H1583       H  0.59151638  0.75807307  0.35743592     0.30800
H1584       H  0.73703226  0.76997236  0.36082409     0.31000
Zr1585     Zr  0.85939850  0.71994769  0.22057262     2.17500
O1586       O  0.83988300  0.73831623  0.22993988    -0.51300
O1587       O  0.92310969  0.77698459  0.21958343    -0.74500
O1588       O  0.89227703  0.71220440  0.22928354    -0.81300
O1589       O  0.80996489  0.76083084  0.21088312    -0.83100
O1590       O  0.89944100  0.65932051  0.22805167    -0.78700
O1591       O  0.84323598  0.77083684  0.21972742    -0.90300
O1592       O  0.95005413  0.77062231  0.21086063    -0.76300
O1593       O  0.89912417  0.69567893  0.21675283    -0.85800
O1594       O  0.86671386  0.73466096  0.20996980    -0.85500
O1595       O  0.82420817  0.65173195  0.22279800    -0.72200
O1596       O  0.79487822  0.68936973  0.21651475    -0.84400
Zr1597     Zr  0.80654778  0.60961645  0.20380673     2.26400
Zr1598     Zr  0.86395763  0.62758887  0.21869791     2.06300
Zr1599     Zr  0.80261020  0.70278482  0.20584916     2.10000
Zr1600     Zr  0.90554801  0.70924736  0.20617379     1.78800
O1601       O  0.73457992  0.68540848  0.20569332    -0.93200
O1602       O  0.96563208  0.70768708  0.20739988    -0.41000
O1603       O  0.84204445  0.67801468  0.20197057    -0.77600
O1604       O  0.87148390  0.64038815  0.20794048    -0.96300
O1605       O  0.79980453  0.59569994  0.21444752    -0.89600
O1606       O  0.76679372  0.63432010  0.20760637    -0.92400
C1607       C  0.95053819  0.78923667  0.21564757     1.01300
C1608       C  0.82528014  0.77986809  0.21579395     1.14200
C1609       C  0.90482233  0.68959480  0.23099746     1.05000
O1610       O  0.92593987  0.62951493  0.21773472    -0.94600
O1611       O  0.85367071  0.56718925  0.21438036    -0.90300
O1612       O  0.82467523  0.55982501  0.20519426    -0.83500
C1613       C  0.83963138  0.54891894  0.20938375     1.11700
O1614       O  0.74238530  0.63438584  0.22815690    -0.96600
Zr1615     Zr  0.76083267  0.62084207  0.21827615     1.88900
O1616       O  0.73876707  0.55782918  0.20433813    -0.73200
O1617       O  0.84029000  0.58027380  0.22695251    -0.52500
O1618       O  0.74047496  0.56602826  0.22518493    -0.97200
O1619       O  0.70433902  0.62934598  0.21746283    -0.54400
O1620       O  0.71301640  0.56272655  0.21327462    -0.73700
C1621       C  0.71090910  0.54599994  0.20820809     0.98600
O1622       O  0.80299259  0.57502850  0.19445214    -0.62600
O1623       O  0.81317950  0.75266502  0.19839361    -0.57400
O1624       O  0.80471546  0.63532614  0.19370028    -0.94000
O1625       O  0.79531041  0.68670707  0.19507198    -0.92500
O1626       O  0.92022772  0.75749287  0.19823568    -0.92800
O1627       O  0.92567701  0.69207966  0.19677338    -0.91600
C1628       C  0.79937367  0.66276876  0.19166913     1.17500
H1629       H  0.87905294  0.76224580  0.20922712     0.33400
H1630       H  0.88618795  0.62958748  0.20614793     0.44300
H1631       H  0.74206466  0.62320733  0.20556215     0.37800
H1632       H  0.82162813  0.64758863  0.22715096     0.34300
H1633       H  0.98561829  0.73162478  0.20536295     0.26000
H1634       H  0.81768383  0.55698179  0.22523443     0.32000
H1635       H  0.76311453  0.57350515  0.22786145     0.37900
H1636       H  0.89722585  0.74573839  0.19554473     0.32400
H1637       H  0.79491173  0.76178107  0.19949926     0.31200
H1638       H  0.72646163  0.67817496  0.20141740     0.32900
H1639       H  0.69389545  0.62025537  0.21333390     0.31900
H1640       H  0.90134844  0.67090984  0.19503297     0.35900
H1641       H  0.82897426  0.57775645  0.19390717     0.28600
H1642       H  0.86434201  0.75711529  0.23196831     0.32800
H1643       H  0.71516884  0.61366136  0.22881648     0.35700
H1644       H  0.83926370  0.77472864  0.19931649     0.28300
H1645       H  0.78539539  0.54716579  0.19534619     0.41200
H1646       H  0.94550791  0.65570353  0.21914432     0.31200
H1647       H  0.97180672  0.71252197  0.21178184     0.38800
H1648       H  0.71505827  0.65778087  0.21731595     0.30700
H1649       H  0.86043624  0.57274044  0.22742255     0.30800
H1650       H  0.82877935  0.71483411  0.23254645     0.31000
Zr1651     Zr  0.83277272  0.72205661  0.13175096     2.17500
O1652       O  0.81651851  0.75431944  0.13970336    -0.51300
O1653       O  0.89970062  0.77607227  0.13149576    -0.74500
O1654       O  0.84546995  0.70746548  0.14210128    -0.81300
O1655       O  0.79067971  0.76090022  0.11979614    -0.83100
O1656       O  0.84851176  0.65188129  0.14171275    -0.78700
O1657       O  0.81561507  0.77157618  0.12936595    -0.90300
O1658       O  0.92968955  0.76639600  0.12345839    -0.76300
O1659       O  0.87219536  0.69415339  0.12941158    -0.85800
O1660       O  0.84843198  0.73372625  0.12118541    -0.85500
O1661       O  0.79231248  0.65397087  0.13401700    -0.72200
O1662       O  0.77191543  0.69156738  0.12636954    -0.84400
Zr1663     Zr  0.78808025  0.60715689  0.11553130     2.26400
Zr1664     Zr  0.83203647  0.62634019  0.13146906     2.06300
Zr1665     Zr  0.78832837  0.70295507  0.11581052     2.10000
Zr1666     Zr  0.88669872  0.70480837  0.11882907     1.78800
O1667       O  0.72772425  0.70231196  0.11386941    -0.93200
O1668       O  0.94050860  0.69662387  0.12226556    -0.41000
O1669       O  0.82737197  0.67490880  0.11315033    -0.77600
O1670       O  0.84877661  0.63704533  0.12089491    -0.96300
O1671       O  0.77206527  0.59528236  0.12606462    -0.89600
O1672       O  0.74913123  0.63544989  0.11795064    -0.92400
C1673       C  0.92903904  0.78645616  0.12796007     1.01300
C1674       C  0.80130566  0.78018520  0.12477294     1.14200
C1675       C  0.84985846  0.68053098  0.14459187     1.05000
O1676       O  0.89506355  0.63327894  0.13379637    -0.94600
O1677       O  0.82848199  0.56787190  0.12749801    -0.90300
O1678       O  0.80062458  0.55434288  0.11810398    -0.83500
C1679       C  0.81602816  0.54692465  0.12269705     1.11700
O1680       O  0.70667709  0.64683424  0.13626182    -0.96600
Zr1681     Zr  0.73307387  0.62332395  0.12839997     1.88900
O1682       O  0.72383243  0.55156318  0.11608016    -0.73200
O1683       O  0.79698496  0.57263630  0.13855339    -0.52500
O1684       O  0.71278075  0.57915010  0.13707247    -0.97200
O1685       O  0.67529730  0.62553066  0.12531076    -0.54400
O1686       O  0.69090140  0.56010645  0.12383023    -0.73700
C1687       C  0.69373623  0.54044948  0.11942176     0.98600
O1688       O  0.81341576  0.58884654  0.10681823    -0.62600
O1689       O  0.82472120  0.75148390  0.10803035    -0.57400
O1690       O  0.75859435  0.61251470  0.10602261    -0.94000
O1691       O  0.76176916  0.67132826  0.10615221    -0.92500
O1692       O  0.91266478  0.75078014  0.11040707    -0.92800
O1693       O  0.91445682  0.68622047  0.11050142    -0.91600
C1694       C  0.75241135  0.63866519  0.10365413     1.17500
H1695       H  0.86231228  0.76120095  0.12031358     0.33400
H1696       H  0.86390004  0.62516408  0.11975838     0.44300
H1697       H  0.72558574  0.62418297  0.11558193     0.37800
H1698       H  0.78494344  0.64981348  0.13825211     0.34300
H1699       H  0.96305703  0.71522328  0.11979972     0.26000
H1700       H  0.81738499  0.57168563  0.14100366     0.32000
H1701       H  0.71603331  0.55721579  0.13571494     0.37900
H1702       H  0.90635798  0.77126749  0.11140919     0.32400
H1703       H  0.80592606  0.75845178  0.10633371     0.31200
H1704       H  0.73376094  0.72102815  0.11049487     0.32900
H1705       H  0.66626434  0.61004700  0.12153618     0.31900
H1706       H  0.89196784  0.66370493  0.10860134     0.35900
H1707       H  0.82303244  0.61116658  0.10398334     0.28600
H1708       H  0.84064017  0.76968791  0.14206595     0.32800
H1709       H  0.68154617  0.62418772  0.13746613     0.35700
H1710       H  0.84347582  0.77485783  0.11029512     0.28300
H1711       H  0.83732990  0.58969819  0.10830764     0.41200
H1712       H  0.89017750  0.61581396  0.13731471     0.31200
H1713       H  0.94639533  0.70761095  0.12641898     0.38800
H1714       H  0.68518885  0.65263371  0.12395392     0.30700
H1715       H  0.78397517  0.58169348  0.14141654     0.30800
H1716       H  0.79850189  0.73352372  0.14249987     0.31000
Zr1717     Zr  0.25092134  0.14299380  0.21697135     2.17500
O1718       O  0.21760962  0.09070002  0.22436586    -0.51300
O1719       O  0.19758007  0.15551828  0.21642776    -0.74500
O1720       O  0.25295410  0.16735696  0.22711958    -0.81300
O1721       O  0.22377989  0.06815052  0.20442379    -0.83100
O1722       O  0.30778969  0.22598704  0.22811115    -0.78700
O1723       O  0.20452528  0.07796289  0.21367347    -0.90300
O1724       O  0.21259870  0.20331430  0.20946600    -0.76300
O1725       O  0.28115018  0.21149771  0.21585756    -0.85800
O1726       O  0.24557858  0.15471969  0.20648118    -0.85500
O1727       O  0.31612288  0.16769485  0.22048170    -0.72200
O1728       O  0.28281770  0.11480439  0.21157444    -0.84400
Zr1729     Zr  0.37675476  0.22126930  0.20320167     2.26400
Zr1730     Zr  0.34673376  0.23651327  0.21899599     2.06300
Zr1731     Zr  0.27958187  0.12854825  0.20108974     2.10000
Zr1732     Zr  0.27697973  0.22335591  0.20540256     1.78800
O1733       O  0.29383699  0.07954700  0.19726821    -0.93200
O1734       O  0.27844339  0.28139252  0.20930789    -0.41000
O1735       O  0.31102752  0.19739013  0.20000708    -0.77600
O1736       O  0.34377262  0.25014245  0.20841929    -0.96300
O1737       O  0.38020284  0.20915379  0.21373403    -0.89600
O1738       O  0.34540410  0.15241597  0.20421506    -0.92400
C1739       C  0.18990591  0.17846916  0.21342683     1.01300
C1740       C  0.20109852  0.05676428  0.20906022     1.14200
C1741       C  0.27518961  0.19829638  0.23008306     1.05000
O1742       O  0.34652201  0.29659670  0.22105663    -0.94600
O1743       O  0.41085783  0.29081874  0.21685583    -0.90300
O1744       O  0.42500278  0.28469946  0.20705157    -0.83500
C1745       C  0.43268639  0.30291702  0.21213027     1.11700
O1746       O  0.32225401  0.09172685  0.22283249    -0.96600
Zr1747     Zr  0.34813130  0.14052255  0.21480545     1.88900
O1748       O  0.42868423  0.20500876  0.20382252    -0.73200
O1749       O  0.38505659  0.24136565  0.22792435    -0.52500
O1750       O  0.39345865  0.15639025  0.22320456    -0.97200
O1751       O  0.33813918  0.07819915  0.21124363    -0.54400
O1752       O  0.41046944  0.15714803  0.21082947    -0.73700
C1753       C  0.43456986  0.18116406  0.20697683     0.98600
O1754       O  0.41815561  0.26516956  0.19520239    -0.62600
O1755       O  0.22789029  0.10996432  0.19363361    -0.57400
O1756       O  0.36434699  0.20771053  0.19232721    -0.94000
O1757       O  0.30564181  0.15334577  0.19106612    -0.92500
O1758       O  0.23784237  0.20582871  0.19619849    -0.92800
O1759       O  0.30224992  0.27595692  0.19797130    -0.91600
C1760       C  0.33674594  0.18249999  0.18899129     1.17500
H1761       H  0.21881109  0.14241650  0.20521491     0.33400
H1762       H  0.35700822  0.27781710  0.20770894     0.44300
H1763       H  0.35777612  0.14168365  0.20172820     0.37800
H1764       H  0.31627429  0.16176377  0.22474962     0.34300
H1765       H  0.27153100  0.27577463  0.21366470     0.26000
H1766       H  0.40850644  0.24184399  0.22629237     0.32000
H1767       H  0.40367015  0.13830749  0.22278629     0.37900
H1768       H  0.25212599  0.19890080  0.19322983     0.32400
H1769       H  0.22230483  0.08422348  0.19213706     0.31200
H1770       H  0.27187031  0.06320753  0.19454595     0.32900
H1771       H  0.35306069  0.08406818  0.20740258     0.31900
H1772       H  0.32903425  0.28153920  0.19713698     0.35900
H1773       H  0.41526474  0.28846686  0.19547146     0.28600
H1774       H  0.19785869  0.09540704  0.22631038     0.32800
H1775       H  0.29433337  0.08359168  0.22302996     0.35700
H1776       H  0.20453066  0.10464591  0.19599462     0.28300
H1777       H  0.44519170  0.27399555  0.19647023     0.41200
H1778       H  0.35512679  0.31165993  0.21722071     0.31200
H1779       H  0.30619903  0.30161964  0.20932091     0.38800
H1780       H  0.31063576  0.06377588  0.20995794     0.30700
H1781       H  0.39447829  0.26796484  0.22946543     0.30800
H1782       H  0.23687400  0.09558550  0.22759166     0.31000
Zr1783     Zr  0.25933309  0.11721641  0.12801018     2.17500
O1784       O  0.21714815  0.06447581  0.13487129    -0.51300
O1785       O  0.21023771  0.13731193  0.12728915    -0.74500
O1786       O  0.26726383  0.13742670  0.13866686    -0.81300
O1787       O  0.22179846  0.04375238  0.11508767    -0.83100
O1788       O  0.32630193  0.19153397  0.13969389    -0.78700
O1789       O  0.20782446  0.05519779  0.12462586    -0.90300
O1790       O  0.23540940  0.19129509  0.12134563    -0.76300
O1791       O  0.29419919  0.18578771  0.12681357    -0.85800
O1792       O  0.25571646  0.12894018  0.11745535    -0.85500
O1793       O  0.32405504  0.13579376  0.13131738    -0.72200
O1794       O  0.28842006  0.08509531  0.12266148    -0.84400
Zr1795     Zr  0.38503481  0.18776936  0.11401377     2.26400
Zr1796     Zr  0.35893483  0.20472033  0.12993475     2.06300
Zr1797     Zr  0.28515996  0.09797110  0.11208167     2.10000
Zr1798     Zr  0.29153798  0.19740902  0.11622337     1.78800
O1799       O  0.27240287  0.03440336  0.10869051    -0.93200
O1800       O  0.31161017  0.26417333  0.11894607    -0.41000
O1801       O  0.32039085  0.16685229  0.11054156    -0.77600
O1802       O  0.35640706  0.21942886  0.11942510    -0.96300
O1803       O  0.38895861  0.17492116  0.12448302    -0.89600
O1804       O  0.35021406  0.11894327  0.11525353    -0.92400
C1805       C  0.20893308  0.16588607  0.12476877     1.01300
C1806       C  0.19983290  0.03448244  0.11982181     1.14200
C1807       C  0.29383261  0.16487242  0.14184766     1.05000
O1808       O  0.36173373  0.26528863  0.13274006    -0.94600
O1809       O  0.42257547  0.25759716  0.12735434    -0.90300
O1810       O  0.43821868  0.24917336  0.11772657    -0.83500
C1811       C  0.44509098  0.26840675  0.12271022     1.11700
O1812       O  0.32634522  0.05601708  0.13344901    -0.96600
Zr1813     Zr  0.35415220  0.10645499  0.12566157     1.88900
O1814       O  0.43629088  0.17228074  0.11488159    -0.73200
O1815       O  0.40435456  0.20988561  0.13781354    -0.52500
O1816       O  0.39696269  0.12068948  0.13437359    -0.97200
O1817       O  0.34201658  0.04435366  0.12160199    -0.54400
O1818       O  0.41828119  0.12330884  0.12174745    -0.73700
C1819       C  0.44232373  0.14827403  0.11791964     0.98600
O1820       O  0.41398662  0.23890701  0.10631732    -0.62600
O1821       O  0.24706694  0.10361572  0.10388210    -0.57400
O1822       O  0.38291909  0.15981522  0.10409691    -0.94000
O1823       O  0.32538389  0.10328377  0.10325640    -0.92500
O1824       O  0.24119926  0.17941474  0.10855939    -0.92800
O1825       O  0.31340378  0.24082525  0.10745263    -0.91600
C1826       C  0.35946020  0.12837670  0.10131071     1.17500
H1827       H  0.22912060  0.11868301  0.11619101     0.33400
H1828       H  0.37113248  0.24708110  0.11874795     0.44300
H1829       H  0.36165538  0.10666965  0.11291529     0.37800
H1830       H  0.32421622  0.12895028  0.13552480     0.34300
H1831       H  0.29220266  0.26944038  0.11701384     0.26000
H1832       H  0.40480590  0.22898049  0.14074224     0.32000
H1833       H  0.41896849  0.14710100  0.13359020     0.37900
H1834       H  0.23125979  0.19758474  0.10916603     0.32400
H1835       H  0.26565863  0.12708826  0.10158918     0.31200
H1836       H  0.25963129  0.03063154  0.10468689     0.32900
H1837       H  0.36690551  0.04958279  0.11976328     0.31900
H1838       H  0.31728823  0.22598121  0.10418824     0.35900
H1839       H  0.39657817  0.22891530  0.10275162     0.28600
H1840       H  0.20180206  0.07382339  0.13711716     0.32800
H1841       H  0.34394776  0.04515100  0.13370276     0.35700
H1842       H  0.24147514  0.08181365  0.10112230     0.28300
H1843       H  0.40993303  0.26000385  0.10786238     0.41200
H1844       H  0.33604927  0.25745012  0.13455192     0.31200
H1845       H  0.30610038  0.26313404  0.12335537     0.38800
H1846       H  0.32454742  0.03931680  0.11809506     0.30700
H1847       H  0.39108659  0.18477722  0.14001205     0.30800
H1848       H  0.23447844  0.06280596  0.13794050     0.31000
Zr1849     Zr  0.81896285  0.10865008  0.21863324     2.17500
O1850       O  0.85586389  0.11570522  0.22786564    -0.51300
O1851       O  0.80210026  0.04215504  0.21638258    -0.74500
O1852       O  0.77683906  0.07533350  0.22728141    -0.81300
O1853       O  0.90992696  0.15920404  0.20901001    -0.83100
O1854       O  0.72575791  0.08609730  0.22711951    -0.78700
O1855       O  0.88478647  0.11996794  0.21728439    -0.90300
O1856       O  0.76196609  0.02241616  0.20819258    -0.76300
O1857       O  0.75379146  0.08065154  0.21514784    -0.85800
O1858       O  0.82189358  0.10471466  0.20786091    -0.85500
O1859       O  0.79685465  0.15220536  0.22185575    -0.72200
O1860       O  0.85955774  0.17407460  0.21513430    -0.84400
Zr1861     Zr  0.77463230  0.18463218  0.20360782     2.26400
Zr1862     Zr  0.73190292  0.12442224  0.21807079     2.06300
Zr1863     Zr  0.86134687  0.16989790  0.20432619     2.10000
Zr1864     Zr  0.75669748  0.07675417  0.20441823     1.78800
O1865       O  0.92144554  0.23188588  0.20367867    -0.93200
O1866       O  0.68933410  0.02604156  0.20575288    -0.41000
O1867       O  0.79651100  0.14102803  0.20064952    -0.77600
O1868       O  0.73273247  0.11925466  0.20719478    -0.96300
O1869       O  0.77148970  0.18930334  0.21438017    -0.89600
O1870       O  0.83976480  0.21388592  0.20716265    -0.92400
C1871       C  0.78061444  0.01668954  0.21243669     1.01300
C1872       C  0.91259077  0.14046480  0.21356163     1.14200
C1873       C  0.74508065  0.07136074  0.22948494     1.05000
O1874       O  0.66657037  0.06847750  0.21798193    -0.94600
O1875       O  0.68600899  0.14291909  0.21430276    -0.90300
O1876       O  0.70953308  0.17367683  0.20525879    -0.83500
C1877       C  0.68365358  0.15965676  0.20944568     1.11700
O1878       O  0.87223872  0.22857595  0.22741484    -0.96600
Zr1879     Zr  0.83624603  0.21685674  0.21796263     1.88900
O1880       O  0.79946697  0.25358817  0.20517439    -0.73200
O1881       O  0.71910908  0.15630016  0.22647519    -0.52500
O1882       O  0.81142060  0.23778553  0.22639294    -0.97200
O1883       O  0.90415377  0.26687134  0.21688204    -0.54400
O1884       O  0.83169599  0.27162581  0.21415605    -0.73700
C1885       C  0.81785100  0.27851780  0.20934982     0.98600
O1886       O  0.74905037  0.20103202  0.19468933    -0.62600
O1887       O  0.88325909  0.14136095  0.19657248    -0.57400
O1888       O  0.79996839  0.18725356  0.19335925    -0.94000
O1889       O  0.85978062  0.19366946  0.19426825    -0.92500
O1890       O  0.78148915  0.05527405  0.19605949    -0.92800
O1891       O  0.72137783  0.06689076  0.19493522    -0.91600
C1892       C  0.83223607  0.19268261  0.19112115     1.17500
H1893       H  0.83318519  0.08906735  0.20669629     0.33400
H1894       H  0.70685972  0.10856762  0.20555358     0.44300
H1895       H  0.85620160  0.23906269  0.20533111     0.37800
H1896       H  0.79679845  0.15324285  0.22624808     0.34300
H1897       H  0.68683294  0.00394582  0.20333212     0.26000
H1898       H  0.69515051  0.13559652  0.22840350     0.32000
H1899       H  0.78595368  0.23353443  0.22498157     0.37900
H1900       H  0.80147542  0.07956847  0.19410735     0.32400
H1901       H  0.91193459  0.15711180  0.19663581     0.31200
H1902       H  0.93715631  0.22782452  0.20058286     0.32900
H1903       H  0.90553210  0.28045470  0.21302977     0.31900
H1904       H  0.72487818  0.09273787  0.19392212     0.35900
H1905       H  0.72446305  0.17719108  0.19367742     0.28600
H1906       H  0.84679653  0.08895622  0.22933515     0.32800
H1907       H  0.88565812  0.21334756  0.22702633     0.35700
H1908       H  0.87736685  0.11579225  0.19821725     0.28300
H1909       H  0.74121374  0.21975569  0.19610585     0.41200
H1910       H  0.66984090  0.04604233  0.21903035     0.31200
H1911       H  0.68762736  0.01748335  0.21003013     0.38800
H1912       H  0.91799071  0.25249859  0.21600351     0.30700
H1913       H  0.73983031  0.16197593  0.22947236     0.30800
H1914       H  0.84618782  0.12720961  0.23090561     0.31000
Zr1915     Zr  0.86313786  0.15081017  0.13255955     2.17500
O1916       O  0.91183751  0.17323428  0.14059214    -0.51300
O1917       O  0.84554269  0.08260766  0.13336544    -0.74500
O1918       O  0.83410981  0.13953575  0.14266845    -0.81300
O1919       O  0.94259890  0.17728635  0.12063353    -0.83100
O1920       O  0.77599737  0.13709221  0.14172928    -0.78700
O1921       O  0.92539867  0.15670270  0.13040636    -0.90300
O1922       O  0.80618576  0.05132922  0.12537764    -0.76300
O1923       O  0.79610083  0.11345481  0.13015008    -0.85800
O1924       O  0.85948542  0.13153204  0.12221583    -0.85500
O1925       O  0.83885921  0.19475001  0.13413892    -0.72200
O1926       O  0.89735033  0.21006809  0.12677007    -0.84400
Zr1927     Zr  0.80012807  0.19637770  0.11523161     2.26400
Zr1928     Zr  0.77187021  0.15703365  0.13146676     2.06300
Zr1929     Zr  0.89285222  0.18992340  0.11641460     2.10000
Zr1930     Zr  0.79262375  0.09561561  0.11975776     1.78800
O1931       O  0.95653658  0.24676551  0.11483965    -0.93200
O1932       O  0.72869205  0.04602254  0.12327266    -0.41000
O1933       O  0.82566356  0.15343818  0.11367917    -0.77600
O1934       O  0.76606371  0.13733088  0.12105342    -0.96300
O1935       O  0.80390046  0.21531031  0.12559152    -0.89600
O1936       O  0.86737963  0.23270539  0.11779031    -0.92400
C1937       C  0.82534746  0.05219776  0.13012315     1.01300
C1938       C  0.94816008  0.16562791  0.12581600     1.14200
C1939       C  0.80224010  0.13532591  0.14485532     1.05000
O1940       O  0.71013440  0.09747936  0.13294025    -0.94600
O1941       O  0.72242669  0.16870071  0.12748318    -0.90300
O1942       O  0.73492341  0.18618119  0.11749547    -0.83500
C1943       C  0.71369634  0.17722241  0.12233118     1.11700
O1944       O  0.91843387  0.27835258  0.13618218    -0.96600
Zr1945     Zr  0.87069543  0.25226889  0.12802569     1.88900
O1946       O  0.80992170  0.26149827  0.11519696    -0.73200
O1947       O  0.75660810  0.19379843  0.13871638    -0.52500
O1948       O  0.84969103  0.27986115  0.13604793    -0.97200
O1949       O  0.93164751  0.30676972  0.12441714    -0.54400
O1950       O  0.85030249  0.29420177  0.12303439    -0.73700
C1951       C  0.82848879  0.29164242  0.11852812     0.98600
O1952       O  0.75922910  0.17108113  0.10623589    -0.62600
O1953       O  0.90013763  0.15057341  0.10862344    -0.57400
O1954       O  0.83791444  0.22326922  0.10581763    -0.94000
O1955       O  0.89175794  0.21697030  0.10652637    -0.92500
O1956       O  0.81168432  0.06359712  0.11219102    -0.92800
O1957       O  0.74874860  0.06875335  0.11114112    -0.91600
C1958       C  0.87019504  0.22757392  0.10372251     1.17500
H1959       H  0.87128467  0.11560559  0.12164711     0.33400
H1960       H  0.73907104  0.12326415  0.11989696     0.44300
H1961       H  0.88096342  0.25559881  0.11528600     0.37800
H1962       H  0.84164792  0.20273806  0.13833698     0.34300
H1963       H  0.72381949  0.02204648  0.12116040     0.26000
H1964       H  0.73519680  0.17399051  0.14123785     0.32000
H1965       H  0.82248973  0.27192201  0.13502120     0.37900
H1966       H  0.79943292  0.03620343  0.11354339     0.32400
H1967       H  0.92852227  0.16191071  0.10814331     0.31200
H1968       H  0.96873007  0.23896145  0.11162941     0.32900
H1969       H  0.92481464  0.31690263  0.12078943     0.31900
H1970       H  0.74255268  0.08915655  0.10999807     0.35900
H1971       H  0.76897655  0.15564718  0.10412537     0.28600
H1972       H  0.90380292  0.15075482  0.14335149     0.32800
H1973       H  0.92660085  0.30626124  0.13642602     0.35700
H1974       H  0.89136647  0.12509003  0.11058831     0.28300
H1975       H  0.73331422  0.15140986  0.10775979     0.41200
H1976       H  0.71602953  0.08119708  0.13565787     0.31200
H1977       H  0.73249058  0.04139602  0.12757960     0.38800
H1978       H  0.94639017  0.29476506  0.12278676     0.30700
H1979       H  0.77917318  0.20602232  0.14148947     0.30800
H1980       H  0.90799645  0.19218882  0.14296725     0.31000
Zr1981     Zr  0.48191763  0.53145056  0.03874388     2.17500
O1982       O  0.49370060  0.58289234  0.03150539    -0.51300
O1983       O  0.41371547  0.51353525  0.03910633    -0.74500
O1984       O  0.46940852  0.50956363  0.02815515    -0.81300
O1985       O  0.51978080  0.60614465  0.05149610    -0.83100
O1986       O  0.47286223  0.45443627  0.02735572    -0.78700
O1987       O  0.49422137  0.59466275  0.04196709    -0.90300
O1988       O  0.38440912  0.46952106  0.04668339    -0.76300
O1989       O  0.44563987  0.46317307  0.04027944    -0.85800
O1990       O  0.46670997  0.52224551  0.04934153    -0.85500
O1991       O  0.52558782  0.50936854  0.03562460    -0.72200
O1992       O  0.54307205  0.56234806  0.04405258    -0.84400
Zr1993     Zr  0.53313943  0.45903521  0.05316406     2.26400
Zr1994     Zr  0.48902587  0.44067078  0.03733705     2.06300
Zr1995     Zr  0.52732551  0.55142786  0.05468727     2.10000
Zr1996     Zr  0.43141343  0.45410665  0.05089931     1.78800
O1997       O  0.58114800  0.61482868  0.05744246    -0.93200
O1998       O  0.37657096  0.39228196  0.04775045    -0.41000
O1999       O  0.49125825  0.48282149  0.05646581    -0.77600
O2000       O  0.47214135  0.42849306  0.04790445    -0.96300
O2001       O  0.54923048  0.46949043  0.04265748    -0.89600
O2002       O  0.56919456  0.52754266  0.05163788    -0.92400
C2003       C  0.38415822  0.49133780  0.04240038     1.01300
C2004       C  0.50744605  0.61559369  0.04674912     1.14200
C2005       C  0.46848162  0.48171704  0.02506669     1.05000
O2006       O  0.42735448  0.38326974  0.03493327    -0.94600
O2007       O  0.49904538  0.38743943  0.04016319    -0.90300
O2008       O  0.52417935  0.39679769  0.04971867    -0.83500
C2009       C  0.51133178  0.37705800  0.04479229     1.11700
O2010       O  0.61135239  0.58727374  0.03325767    -0.96600
Zr2011     Zr  0.58496096  0.53770477  0.04118886     1.88900
O2012       O  0.59912390  0.47168347  0.05232909    -0.73200
O2013       O  0.52423748  0.42791858  0.02942903    -0.52500
O2014       O  0.60934492  0.51821033  0.03250764    -0.97200
O2015       O  0.63685155  0.59953927  0.04497213    -0.54400
O2016       O  0.63050983  0.51982274  0.04535777    -0.73700
C2017       C  0.62926998  0.49514021  0.04926316     0.98600
O2018       O  0.50985141  0.41174302  0.06144817    -0.62600
O2019       O  0.48762965  0.55215859  0.06307152    -0.57400
O2020       O  0.56182175  0.48855521  0.06284051    -0.94000
O2021       O  0.56083268  0.54516202  0.06367097    -0.92500
O2022       O  0.41053560  0.47398212  0.05995154    -0.92800
O2023       O  0.40454288  0.40387849  0.05871055    -0.91600
C2024       C  0.56981294  0.52000259  0.06562495     1.17500
H2025       H  0.45147570  0.53394713  0.05053061     0.33400
H2026       H  0.45842438  0.40096372  0.04871058     0.44300
H2027       H  0.59302794  0.53954067  0.05393969     0.37800
H2028       H  0.53287790  0.51539506  0.03140851     0.34300
H2029       H  0.35334046  0.39265071  0.04929154     0.26000
H2030       H  0.50393457  0.40827314  0.02675882     0.32000
H2031       H  0.60321338  0.49136507  0.03344784     0.37900
H2032       H  0.39369431  0.48396486  0.05844706     0.32400
H2033       H  0.50635341  0.57190272  0.06590934     0.31200
H2034       H  0.57565450  0.61907283  0.06167689     0.32900
H2035       H  0.65376904  0.59304351  0.04741303     0.31900
H2036       H  0.42706373  0.40883006  0.06126043     0.35900
H2037       H  0.50030882  0.42275075  0.06459349     0.28600
H2038       H  0.46927403  0.57348169  0.02919126     0.32800
H2039       H  0.63907645  0.59483063  0.03289304     0.35700
H2040       H  0.47302718  0.56411895  0.06135284     0.28300
H2041       H  0.48592242  0.38923184  0.05986540     0.41200
H2042       H  0.42168046  0.36576133  0.03846983     0.31200
H2043       H  0.37531827  0.39448948  0.04328042     0.38800
H2044       H  0.62412587  0.60790958  0.04800309     0.30700
H2045       H  0.53705847  0.45186650  0.02693080     0.30800
H2046       H  0.51277610  0.58356403  0.02853826     0.31000
Zr2047     Zr  0.44144243  0.48721846  0.94973846     2.17500
O2048       O  0.46018450  0.53392989  0.94142818    -0.51300
O2049       O  0.37697790  0.47789379  0.95150131    -0.74500
O2050       O  0.40951829  0.45445324  0.94025765    -0.81300
O2051       O  0.48772039  0.56452272  0.96188201    -0.83100
O2052       O  0.41503154  0.40025075  0.93962902    -0.78700
O2053       O  0.45869995  0.55310349  0.95260200    -0.90300
O2054       O  0.34499861  0.42544852  0.95771883    -0.76300
O2055       O  0.40634272  0.41899334  0.95147192    -0.85800
O2056       O  0.42802576  0.47863659  0.96036324    -0.85500
O2057       O  0.48367811  0.46365126  0.94644387    -0.72200
O2058       O  0.50323241  0.51765761  0.95476618    -0.84400
Zr2059     Zr  0.49588133  0.41621403  0.96414140     2.26400
Zr2060     Zr  0.44861957  0.39537257  0.94850630     2.06300
Zr2061     Zr  0.48926121  0.50767874  0.96540517     2.10000
Zr2062     Zr  0.39254914  0.41060867  0.96203093     1.78800
O2063       O  0.55313601  0.56071458  0.96815415    -0.93200
O2064       O  0.33872824  0.34774626  0.95903801    -0.41000
O2065       O  0.45327847  0.43934027  0.96728231    -0.77600
O2066       O  0.43352027  0.38478215  0.95915080    -0.96300
O2067       O  0.51004196  0.42486404  0.95353717    -0.89600
O2068       O  0.53201223  0.48447194  0.96243777    -0.92400
C2069       C  0.34656548  0.45260865  0.95434903     1.01300
C2070       C  0.47557669  0.57477335  0.95722680     1.14200
C2071       C  0.40370770  0.42322775  0.93757884     1.05000
O2072       O  0.39300102  0.33193630  0.94633600    -0.94600
O2073       O  0.45880390  0.34188814  0.95118319    -0.90300
O2074       O  0.48109076  0.35182406  0.96090274    -0.83500
C2075       C  0.46961475  0.33169704  0.95600499     1.11700
O2076       O  0.57038726  0.54208915  0.94379972    -0.96600
Zr2077     Zr  0.54454241  0.49281169  0.95175953     1.88900
O2078       O  0.56449304  0.43553877  0.96361914    -0.73200
O2079       O  0.48628254  0.39288967  0.93994311    -0.52500
O2080       O  0.56457623  0.47266094  0.94264194    -0.97200
O2081       O  0.59785750  0.55599007  0.95475736    -0.54400
O2082       O  0.59180783  0.47633232  0.95559723    -0.73700
C2083       C  0.59292834  0.45561883  0.95999436     0.98600
O2084       O  0.49566294  0.36882936  0.97126400    -0.62600
O2085       O  0.45707972  0.52612119  0.97306692    -0.57400
O2086       O  0.49942863  0.43461919  0.97485902    -0.94000
O2087       O  0.49707839  0.49033356  0.97564486    -0.92500
O2088       O  0.37052901  0.43383598  0.97052978    -0.92800
O2089       O  0.36851340  0.36472470  0.97047638    -0.91600
C2090       C  0.49919282  0.46183165  0.97797016     1.17500
H2091       H  0.41347392  0.49083187  0.96166719     0.33400
H2092       H  0.41969692  0.35735019  0.96005373     0.44300
H2093       H  0.55558739  0.49665488  0.96481448     0.37800
H2094       H  0.48843592  0.46820985  0.94212401     0.34300
H2095       H  0.31554913  0.34653160  0.96093633     0.26000
H2096       H  0.46912267  0.36753300  0.93800447     0.32000
H2097       H  0.59007137  0.47534465  0.94364471     0.37900
H2098       H  0.39332739  0.44674706  0.97324716     0.32400
H2099       H  0.47633933  0.55312260  0.97417575     0.31200
H2100       H  0.54808260  0.58030156  0.97006008     0.32900
H2101       H  0.60784479  0.55121980  0.95859411     0.31900
H2102       H  0.38926513  0.35833711  0.97121843     0.35900
H2103       H  0.51964335  0.38301404  0.97370492     0.28600
H2104       H  0.43550798  0.52945873  0.93961118     0.32800
H2105       H  0.54717065  0.54051217  0.94186052     0.35700
H2106       H  0.43645407  0.52828133  0.97088746     0.28300
H2107       H  0.47406336  0.36224548  0.97414200     0.41200
H2108       H  0.37860344  0.32342643  0.95023023     0.31200
H2109       H  0.33545533  0.35039030  0.95463039     0.38800
H2110       H  0.58520022  0.57094565  0.95600133     0.30700
H2111       H  0.48744483  0.41227738  0.93698772     0.30800
H2112       H  0.47193117  0.52495057  0.93831822     0.31000
Zr2113     Zr  0.04743322  0.47708975  0.03702386     2.17500
O2114       O  0.07848789  0.45320918  0.03004734    -0.51300
O2115       O  0.10182782  0.54417544  0.03657841    -0.74500
O2116       O  0.03899008  0.48902796  0.02633335    -0.81300
O2117       O  0.08065274  0.43836828  0.05029771    -0.83100
O2118       O  0.98256367  0.49008977  0.02548688    -0.78700
O2119       O  0.09635994  0.46259992  0.04067300    -0.90300
O2120       O  0.09042916  0.57882044  0.04363328    -0.76300
O2121       O  0.02225602  0.51972782  0.03828963    -0.85800
O2122       O  0.05604297  0.49472466  0.04750610    -0.85500
O2123       O  0.98006567  0.43817846  0.03429033    -0.72200
O2124       O  0.01168599  0.41734195  0.04272207    -0.84400
Zr2125     Zr  0.92871485  0.44306213  0.05190228     2.26400
Zr2126     Zr  0.95519840  0.48158568  0.03564041     2.06300
Zr2127     Zr  0.02033671  0.43580511  0.05323235     2.10000
Zr2128     Zr  0.03039708  0.53678300  0.04879167     1.78800
O2129       O  0.01590145  0.37349312  0.05527618    -0.93200
O2130       O  0.02483047  0.59250298  0.04556278    -0.41000
O2131       O  0.99562709  0.47912861  0.05482738    -0.77600
O2132       O  0.96353055  0.50173432  0.04607852    -0.96300
O2133       O  0.91888549  0.42379544  0.04152318    -0.89600
O2134       O  0.95328202  0.39982525  0.05061855    -0.92400
C2135       C  0.11099206  0.57588315  0.03941353     1.01300
C2136       C  0.10278669  0.44921647  0.04558766     1.14200
C2137       C  0.01285297  0.49126703  0.02319805     1.05000
O2138       O  0.96889236  0.54578119  0.03238571    -0.94600
O2139       O  0.89743302  0.48324487  0.03860744    -0.90300
O2140       O  0.88208541  0.46148423  0.04837483    -0.83500
C2141       C  0.87656767  0.47533450  0.04342000     1.11700
O2142       O  0.95706687  0.34581644  0.03248884    -0.96600
Zr2143     Zr  0.94355742  0.38091955  0.04030152     1.88900
O2144       O  0.86969054  0.38082759  0.05149943    -0.73200
O2145       O  0.90302186  0.44847052  0.02828984    -0.52500
O2146       O  0.89855557  0.36285615  0.03180142    -0.97200
O2147       O  0.94508603  0.32387028  0.04403527    -0.54400
O2148       O  0.87980305  0.34208474  0.04505516    -0.73700
C2149       C  0.85885123  0.34838138  0.04884086     0.98600
O2150       O  0.91065006  0.47309625  0.05997313    -0.62600
O2151       O  0.06435076  0.46938462  0.06162505    -0.57400
O2152       O  0.92863185  0.41572303  0.06185105    -0.94000
O2153       O  0.98287517  0.41029489  0.06266265    -0.92500
O2154       O  0.07979968  0.56104146  0.05669475    -0.92800
O2155       O  0.01423953  0.56672656  0.05708906    -0.91600
C2156       C  0.95045457  0.40567790  0.06471814     1.17500
H2157       H  0.08320450  0.50799259  0.04859636     0.33400
H2158       H  0.95295714  0.51859590  0.04677719     0.44300
H2159       H  0.93969167  0.37701886  0.05315334     0.37800
H2160       H  0.97736536  0.42938649  0.03014361     0.34300
H2161       H  0.04790784  0.61527185  0.04729711     0.26000
H2162       H  0.90675373  0.46869651  0.02529300     0.32000
H2163       H  0.87675084  0.36581410  0.03333441     0.37900
H2164       H  0.09303126  0.58965055  0.05629649     0.32400
H2165       H  0.06739113  0.44900399  0.06372909     0.31200
H2166       H  0.02414890  0.37500742  0.05956228     0.32900
H2167       H  0.93447094  0.31956218  0.04821755     0.31900
H2168       H  0.98817035  0.54647732  0.05845717     0.35900
H2169       H  0.93137576  0.48128104  0.06306163     0.28600
H2170       H  0.09662380  0.47592650  0.02756460     0.32800
H2171       H  0.93274754  0.32065507  0.03204170     0.35700
H2172       H  0.08988568  0.48625165  0.05969009     0.28300
H2173       H  0.91478979  0.49785630  0.05822178     0.41200
H2174       H  0.96082222  0.55595370  0.03585705     0.31200
H2175       H  0.02990896  0.59460266  0.04113006     0.38800
H2176       H  0.97298373  0.33270741  0.04458992     0.30700
H2177       H  0.90956671  0.43093854  0.02604330     0.30800
H2178       H  0.05790879  0.43576575  0.02719628     0.31000
Zr2179     Zr  0.05579676  0.52533002  0.94958447     2.17500
O2180       O  0.10230022  0.52732055  0.94213648    -0.51300
O2181       O  0.09916863  0.59218340  0.95242886    -0.74500
O2182       O  0.05371587  0.55517342  0.94001168    -0.81300
O2183       O  0.09207276  0.48363252  0.96180729    -0.83100
O2184       O  0.99305475  0.54561718  0.93844548    -0.78700
O2185       O  0.10792966  0.51359238  0.95257356    -0.90300
O2186       O  0.06931767  0.61131514  0.95927880    -0.76300
O2187       O  0.01277340  0.55000979  0.95098631    -0.85800
O2188       O  0.05130821  0.53154009  0.96028441    -0.85500
O2189       O  0.99603556  0.47851530  0.94492205    -0.72200
O2190       O  0.03174485  0.46146129  0.95368894    -0.84400
Zr2191     Zr  0.92171776  0.44478259  0.96154984     2.26400
Zr2192     Zr  0.95246552  0.50283809  0.94663992     2.06300
Zr2193     Zr  0.02601198  0.46772568  0.96438429     2.10000
Zr2194     Zr  0.00739653  0.55535754  0.96163863     1.78800
O2195       O  0.02243993  0.40610453  0.96674079    -0.93200
O2196       O  0.99104695  0.60394621  0.95829877    -0.41000
O2197       O  0.98247638  0.49202835  0.96579316    -0.77600
O2198       O  0.94600364  0.50928517  0.95739539    -0.96300
O2199       O  0.92659484  0.43881747  0.95082453    -0.89600
O2200       O  0.96505593  0.42008571  0.96018402    -0.92400
C2201       C  0.09810606  0.61745438  0.95591889     1.01300
C2202       C  0.11519202  0.49898576  0.95726793     1.14200
C2203       C  0.02897281  0.56006992  0.93695884     1.05000
O2204       O  0.93711961  0.55360759  0.94432220    -0.94600
O2205       O  0.88464166  0.48214005  0.94849516    -0.90300
O2206       O  0.86933969  0.45517544  0.95794320    -0.83500
C2207       C  0.86138849  0.46738089  0.95302851     1.11700
O2208       O  0.00917711  0.40500249  0.94183434    -0.96600
Zr2209     Zr  0.97072021  0.41537035  0.94943579     1.88900
O2210       O  0.88237548  0.37487311  0.95964887    -0.73200
O2211       O  0.92272369  0.46653520  0.93740133    -0.52500
O2212       O  0.93681179  0.39261759  0.93977841    -0.97200
O2213       O  0.98778776  0.36663589  0.95242449    -0.54400
O2214       O  0.91029655  0.35865359  0.95206269    -0.73700
C2215       C  0.88324553  0.35043295  0.95592276     0.98600
O2216       O  0.86883351  0.42340934  0.96890225    -0.62600
O2217       O  0.06918051  0.49875208  0.97298685    -0.57400
O2218       O  0.93307313  0.44526080  0.97257433    -0.94000
O2219       O  0.99326063  0.45360842  0.97414862    -0.92500
O2220       O  0.03954195  0.57669056  0.97143994    -0.92800
O2221       O  0.96980771  0.56613548  0.96934908    -0.91600
C2222       C  0.96048347  0.44838507  0.97607759     1.17500
H2223       H  0.07630404  0.54861876  0.96207064     0.33400
H2224       H  0.92862778  0.51915388  0.95818767     0.44300
H2225       H  0.95552700  0.39547476  0.96222617     0.37800
H2226       H  0.99980132  0.47699340  0.94061232     0.34300
H2227       H  0.00532582  0.62606896  0.96109901     0.26000
H2228       H  0.90104470  0.44142584  0.93884447     0.32000
H2229       H  0.90885703  0.37820888  0.94082168     0.37900
H2230       H  0.03736137  0.55299853  0.97331322     0.32400
H2231       H  0.08218764  0.48338614  0.97371235     0.31200
H2232       H  0.04399200  0.40657201  0.96441327     0.32900
H2233       H  0.97283876  0.34456320  0.94964274     0.31900
H2234       H  0.95349714  0.54033757  0.97124717     0.35900
H2235       H  0.86509606  0.44597838  0.96955337     0.28600
H2236       H  0.11885279  0.55503932  0.94103605     0.32800
H2237       H  0.03516575  0.42849868  0.94205999     0.35700
H2238       H  0.08992536  0.52410166  0.97144305     0.28300
H2239       H  0.84516555  0.40410154  0.96675077     0.41200
H2240       H  0.93717082  0.56505719  0.94831678     0.31200
H2241       H  0.00447508  0.61338994  0.95434276     0.38800
H2242       H  0.97543024  0.35695210  0.95644323     0.30700
H2243       H  0.90990305  0.47998090  0.93555831     0.30800
H2244       H  0.08709011  0.51475084  0.93843187     0.31000
Zr2245     Zr  0.43660331  0.91973388  0.03766251     2.17500
O2246       O  0.38905290  0.89039227  0.02951961    -0.51300
O2247       O  0.45207922  0.86759700  0.03759405    -0.74500
O2248       O  0.46563003  0.93566128  0.02745675    -0.81300
O2249       O  0.35476856  0.87651137  0.04930122    -0.83100
O2250       O  0.52424072  0.99079109  0.02816540    -0.78700
O2251       O  0.37197586  0.86611351  0.03991690    -0.90300
O2252       O  0.49040038  0.87646334  0.04577830    -0.76300
O2253       O  0.50333061  0.94751983  0.04031947    -0.85800
O2254       O  0.43881323  0.90669871  0.04822105    -0.85500
O2255       O  0.46375783  0.98791274  0.03558327    -0.72200
O2256       O  0.40438515  0.94887490  0.04293551    -0.84400
Zr2257     Zr  0.50253642  0.03290352  0.05424970     2.26400
Zr2258     Zr  0.53049462  0.01531643  0.03843833     2.06300
Zr2259     Zr  0.40767699  0.93607597  0.05350726     2.10000
Zr2260     Zr  0.50529602  0.93582517  0.05091568     1.78800
O2261       O  0.34487234  0.93110352  0.05526364    -0.93200
O2262       O  0.56875614  0.94498097  0.04817407    -0.41000
O2263       O  0.47429676  0.96480758  0.05646343    -0.77600
O2264       O  0.53478089  0.00382352  0.04902903    -0.96300
O2265       O  0.50017532  0.04558806  0.04371500    -0.89600
O2266       O  0.43572775  0.00394813  0.05153683    -0.92400
C2267       C  0.47137087  0.85744787  0.04108669     1.01300
C2268       C  0.34824579  0.85655334  0.04441339     1.14200
C2269       C  0.49741701  0.96276859  0.02513312     1.05000
O2270       O  0.58821270  0.00945321  0.03719520    -0.94600
O2271       O  0.58244365  0.07482192  0.04249813    -0.90300
O2272       O  0.56874630  0.08568843  0.05211368    -0.83500
C2273       C  0.59105143  0.09455404  0.04741649     1.11700
O2274       O  0.38445881  0.99739915  0.03321762    -0.96600
Zr2275     Zr  0.43366230  0.01746935  0.04112578     1.88900
O2276       O  0.49520065  0.08960288  0.05355198    -0.73200
O2277       O  0.55297855  0.06860123  0.03115218    -0.52500
O2278       O  0.45789348  0.06181690  0.03248399    -0.97200
O2279       O  0.37399413  0.01473961  0.04457252    -0.54400
O2280       O  0.45625003  0.08155252  0.04546488    -0.73700
C2281       C  0.47788007  0.10129709  0.04993468     0.98600
O2282       O  0.54167806  0.04853525  0.06345104    -0.62600
O2283       O  0.39793813  0.88866705  0.06136426    -0.57400
O2284       O  0.46454748  0.02734111  0.06333176    -0.94000
O2285       O  0.40940315  0.96824994  0.06301568    -0.92500
O2286       O  0.48189035  0.88792595  0.05909724    -0.92800
O2287       O  0.54940221  0.95311163  0.05951852    -0.91600
C2288       C  0.43167443  0.00124045  0.06551526     1.17500
H2289       H  0.42570186  0.87911042  0.04900033     0.33400
H2290       H  0.56156762  0.01583537  0.05027317     0.44300
H2291       H  0.42274501  0.01487029  0.05381270     0.37800
H2292       H  0.46139938  0.99257775  0.03133884     0.34300
H2293       H  0.56985255  0.92312683  0.05014872     0.26000
H2294       H  0.57413894  0.06805926  0.02885679     0.32000
H2295       H  0.48573573  0.07928541  0.03337028     0.37900
H2296       H  0.46399911  0.86289188  0.05713415     0.32400
H2297       H  0.37154099  0.87993865  0.06295751     0.31200
H2298       H  0.33515648  0.91598050  0.05908144     0.32900
H2299       H  0.38130464  0.03183040  0.04817431     0.31900
H2300       H  0.54060064  0.96625131  0.06239898     0.35900
H2301       H  0.52815865  0.02501442  0.06603153     0.28600
H2302       H  0.39791449  0.87561989  0.02701125     0.32800
H2303       H  0.38070841  0.01995123  0.03253689     0.35700
H2304       H  0.39543659  0.86590529  0.05914404     0.28300
H2305       H  0.56579634  0.04898960  0.06217983     0.41200
H2306       H  0.60360194  0.02872447  0.03401202     0.31200
H2307       H  0.56688464  0.93902993  0.04377718     0.38800
H2308       H  0.35801570  0.98817530  0.04622916     0.30700
H2309       H  0.53162155  0.06043432  0.02818075     0.30800
H2310       H  0.39245527  0.91220490  0.02690483     0.31000
Zr2311     Zr  0.47089380  0.91435339  0.94882951     2.17500
O2312       O  0.43144429  0.89772422  0.93964868    -0.51300
O2313       O  0.47784768  0.85741328  0.94918490    -0.74500
O2314       O  0.50988915  0.92164886  0.94003746    -0.81300
O2315       O  0.38311202  0.87171252  0.95915376    -0.83100
O2316       O  0.56868421  0.97653179  0.94094390    -0.78700
O2317       O  0.40476343  0.86301780  0.95003850    -0.90300
O2318       O  0.51585737  0.86388803  0.95731218    -0.76300
O2319       O  0.53622030  0.94014737  0.95204043    -0.85800
O2320       O  0.46752165  0.89821214  0.95930566    -0.85500
O2321       O  0.50169959  0.98249467  0.94673113    -0.72200
O2322       O  0.43692752  0.94278333  0.95356391    -0.84400
Zr2323     Zr  0.53069594  0.02188396  0.96585582     2.26400
Zr2324     Zr  0.56687524  0.00852149  0.95035237     2.06300
Zr2325     Zr  0.43522222  0.92790501  0.96412897     2.10000
Zr2326     Zr  0.53288491  0.92437024  0.96248993     1.78800
O2327       O  0.37968396  0.93765753  0.96512414    -0.93200
O2328       O  0.59638372  0.93217922  0.96022415    -0.41000
O2329       O  0.50046840  0.95339745  0.96755182    -0.77600
O2330       O  0.56507871  0.99345980  0.96100260    -0.96300
O2331       O  0.53427969  0.03769057  0.95532040    -0.89600
O2332       O  0.46542542  0.99632992  0.96252007    -0.92400
C2333       C  0.49537472  0.84533143  0.95267688     1.01300
C2334       C  0.37869967  0.85345886  0.95414433     1.14200
C2335       C  0.54421411  0.94534277  0.93816575     1.05000
O2336       O  0.62941445  0.01132430  0.94981814    -0.94600
O2337       O  0.61633242  0.07002453  0.95461248    -0.90300
O2338       O  0.59606837  0.07498682  0.96407555    -0.83500
C2339       C  0.62076456  0.08754794  0.95970905     1.11700
O2340       O  0.43174983  0.99765220  0.94260359    -0.96600
Zr2341     Zr  0.46939176  0.01124111  0.95191979     1.88900
O2342       O  0.51799890  0.07597485  0.96576114    -0.73200
O2343       O  0.58268746  0.05638189  0.94229128    -0.52500
O2344       O  0.50075442  0.06265367  0.94435999    -0.97200
O2345       O  0.40587206  0.00523419  0.95342511    -0.54400
O2346       O  0.48461011  0.07022775  0.95709844    -0.73700
C2347       C  0.50160447  0.08794942  0.96198351     0.98600
O2348       O  0.56773866  0.04569774  0.97524781    -0.62600
O2349       O  0.40855005  0.87339975  0.97123246    -0.57400
O2350       O  0.49996147  0.00122466  0.97587107    -0.94000
O2351       O  0.44077382  0.94732354  0.97468156    -0.92500
O2352       O  0.50545862  0.87269220  0.97005655    -0.92800
O2353       O  0.57032286  0.93834003  0.97182614    -0.91600
C2354       C  0.46758680  0.97363641  0.97796149     1.17500
H2355       H  0.45309703  0.87048771  0.95994340     0.33400
H2356       H  0.59113914  0.00490874  0.96259816     0.44300
H2357       H  0.45219231  0.00701566  0.96480202     0.37800
H2358       H  0.50165639  0.98683688  0.94240320     0.34300
H2359       H  0.59364113  0.90652385  0.96113864     0.26000
H2360       H  0.60927031  0.06341266  0.94099732     0.32000
H2361       H  0.48816078  0.07862279  0.94481231     0.37900
H2362       H  0.48266960  0.87351048  0.97168992     0.32400
H2363       H  0.38087449  0.86580515  0.97169103     0.31200
H2364       H  0.35977422  0.91412910  0.96725669     0.32900
H2365       H  0.40899653  0.03026268  0.95198400     0.31900
H2366       H  0.56748006  0.95915718  0.97379702     0.35900
H2367       H  0.59111644  0.04321207  0.97467820     0.28600
H2368       H  0.43423083  0.87682527  0.93769475     0.32800
H2369       H  0.42433125  0.97058440  0.94158449     0.35700
H2370       H  0.40818691  0.85165442  0.96899248     0.28300
H2371       H  0.57741520  0.07397347  0.97531543     0.41200
H2372       H  0.63889913  0.01533585  0.95406286     0.31200
H2373       H  0.59867964  0.93442290  0.95573927     0.38800
H2374       H  0.40287214  0.00577381  0.95788567     0.30700
H2375       H  0.56604316  0.04175718  0.93881364     0.30800
H2376       H  0.44521691  0.92040120  0.93690671     0.31000
C2377       C  0.48483139  0.97649984  0.99529922     0.18700
C2378       C  0.51710229  0.98126649  0.99860997    -0.19400
C2379       C  0.51385377  0.97149051  0.00478704    -0.11700
C2380       C  0.47818293  0.95727022  0.00785469     0.20900
C2381       C  0.44585430  0.95246671  0.00454180    -0.21000
C2382       C  0.44908152  0.96212252  0.99834951    -0.11900
C2383       C  0.47366142  0.94827030  0.01450668    -0.16000
C2384       C  0.50341134  0.96411975  0.01847419    -0.29900
C2385       C  0.48978725  0.98619474  0.98867848    -0.04100
C2386       C  0.46064772  0.97003351  0.98461526    -0.40700
H2387       H  0.54492379  0.99203626  0.99637720     0.12100
H2388       H  0.53931938  0.97478249  0.00709410     0.11700
H2389       H  0.41807078  0.94181216  0.00678189     0.11200
H2390       H  0.42366589  0.95878360  0.99601415     0.11400
H2391       H  0.44431297  0.93138319  0.01628458     0.14100
H2392       H  0.53260982  0.98355669  0.01685059     0.12900
H2393       H  0.51922843  0.00428675  0.98700344     0.10600
H2394       H  0.43145287  0.94961745  0.98614052     0.12600
C2395       C  0.72009027  0.18073004  0.95770982     0.18700
C2396       C  0.75555838  0.18911771  0.95508705    -0.19400
C2397       C  0.78837255  0.22581167  0.95573949    -0.11700
C2398       C  0.78617161  0.25547842  0.95891391     0.20900
C2399       C  0.75071656  0.24679324  0.96160943    -0.21000
C2400       C  0.71800153  0.20993865  0.96100749    -0.11900
C2401       C  0.81960672  0.29585761  0.95941750    -0.16000
C2402       C  0.85129648  0.30978164  0.95585505    -0.29900
C2403       C  0.68554250  0.14184454  0.95672345    -0.04100
C2404       C  0.65612432  0.12534650  0.96073223    -0.40700
H2405       H  0.75794904  0.16707498  0.95254948     0.12100
H2406       H  0.81515320  0.23034082  0.95374961     0.11700
H2407       H  0.74806065  0.26889009  0.96408253     0.11200
H2408       H  0.69091091  0.20486188  0.96297638     0.11400
H2409       H  0.81713546  0.31537543  0.96260319     0.14100
H2410       H  0.85378430  0.29137195  0.95247700     0.12900
H2411       H  0.68480789  0.12603120  0.95265503     0.10600
H2412       H  0.65779829  0.14002945  0.96497278     0.12600
C2413       C  0.20164251  0.70225319  0.95414073     0.18700
C2414       C  0.22808069  0.71703046  0.94931849    -0.19400
C2415       C  0.26314497  0.75147578  0.94998538    -0.11700
C2416       C  0.27289142  0.77127348  0.95558191     0.20900
C2417       C  0.24622064  0.75650210  0.96039945    -0.21000
C2418       C  0.21093409  0.72222513  0.95970467    -0.11900
C2419       C  0.31042999  0.80713822  0.95660319    -0.16000
C2420       C  0.34133482  0.81858922  0.95294656    -0.29900
C2421       C  0.16549889  0.66501720  0.95331303    -0.04100
C2422       C  0.13273450  0.65602933  0.95632589    -0.40700
H2423       H  0.22140543  0.70202367  0.94499873     0.12100
H2424       H  0.28202787  0.76228469  0.94606931     0.11700
H2425       H  0.25299367  0.77115310  0.96475049     0.11200
H2426       H  0.19157583  0.71095790  0.96357571     0.11400
H2427       H  0.31309451  0.82404159  0.96063767     0.14100
H2428       H  0.34006233  0.80180055  0.94899575     0.12900
H2429       H  0.16593329  0.64455364  0.95008902     0.10600
H2430       H  0.13150559  0.67704629  0.95932510     0.12600
C2431       C  0.68923550  0.18402487  0.05153866     0.18700
C2432       C  0.70208656  0.21847844  0.05481490    -0.19400
C2433       C  0.73958112  0.25001030  0.05389237    -0.11700
C2434       C  0.76509674  0.24749684  0.04967862     0.20900
C2435       C  0.75260041  0.21230606  0.04663263    -0.21000
C2436       C  0.71539094  0.18094223  0.04757350    -0.11900
C2437       C  0.80490856  0.28015415  0.04829885    -0.16000
C2438       C  0.81929647  0.31665810  0.05033732    -0.29900
C2439       C  0.64844418  0.15171850  0.05217079    -0.04100
C2440       C  0.63001278  0.12923011  0.04736930    -0.40700
H2441       H  0.68277304  0.22134041  0.05797881     0.12100
H2442       H  0.74801393  0.27600041  0.05649176     0.11700
H2443       H  0.77164706  0.20907234  0.04345849     0.11200
H2444       H  0.70719420  0.15423343  0.04516966     0.11400
H2445       H  0.82310089  0.27386547  0.04536705     0.14100
H2446       H  0.80193047  0.32418703  0.05321113     0.12900
H2447       H  0.63345100  0.14702650  0.05649149     0.10600
H2448       H  0.64492278  0.13594032  0.04301251     0.12600
C2449       C  0.19386803  0.68350226  0.03963335     0.18700
C2450       C  0.19567722  0.71695443  0.04208952    -0.19400
C2451       C  0.23029832  0.75242220  0.04207999    -0.11700
C2452       C  0.26440288  0.75543311  0.03965018     0.20900
C2453       C  0.26248930  0.72235238  0.03700316    -0.21000
C2454       C  0.22765615  0.68662696  0.03701856    -0.11900
C2455       C  0.30208067  0.79266739  0.03978991    -0.16000
C2456       C  0.31055074  0.82003925  0.04406597    -0.29900
C2457       C  0.15662978  0.64618013  0.04029171    -0.04100
C2458       C  0.14799242  0.61160981  0.03783959    -0.40700
H2459       H  0.17013824  0.71562172  0.04409676     0.12100
H2460       H  0.23004263  0.77741541  0.04395518     0.11700
H2461       H  0.28825928  0.72394377  0.03504679     0.11200
H2462       H  0.22771456  0.66163404  0.03511093     0.11400
H2463       H  0.32409726  0.79679109  0.03647118     0.14100
H2464       H  0.28983035  0.81493082  0.04766395     0.12900
H2465       H  0.13490640  0.64735628  0.04314618     0.10600
H2466       H  0.16805848  0.60913872  0.03478564     0.12600
C2467       C  0.98717960  0.47968535  0.00601732     0.18700
C2468       C  0.95156786  0.46212721  0.00289424    -0.19400
C2469       C  0.94988061  0.45482188  0.99663177    -0.11700
C2470       C  0.98402333  0.46520647  0.99332416     0.20900
C2471       C  0.01961277  0.48324678  0.99643535    -0.21000
C2472       C  0.02131050  0.49063714  0.00267613    -0.11900
C2473       C  0.98461312  0.45827212  0.98666423    -0.16000
C2474       C  0.95491852  0.44864504  0.98276139    -0.29900
C2475       C  0.98704487  0.48511451  0.01273988    -0.04100
C2476       C  0.01704617  0.49289982  0.01648230    -0.40700
H2477       H  0.92475720  0.45340886  0.00533314     0.12100
H2478       H  0.92178134  0.44059008  0.99446191     0.11700
H2479       H  0.04646634  0.49192724  0.99401123     0.11200
H2480       H  0.04950615  0.50507989  0.00480918     0.11400
H2481       H  0.01225068  0.46372601  0.98481375     0.14100
H2482       H  0.92722900  0.44419342  0.98437927     0.12900
H2483       H  0.95976223  0.47955283  0.01475568     0.10600
H2484       H  0.04407177  0.49666430  0.01467519     0.12600
C2485       C  0.76214831  0.45914129  0.95696411     0.18700
C2486       C  0.73791691  0.44782342  0.96211894    -0.19400
C2487       C  0.70392568  0.45029335  0.96218298    -0.11700
C2488       C  0.69330443  0.46419186  0.95705366     0.20900
C2489       C  0.71743507  0.47532198  0.95190824    -0.21000
C2490       C  0.75130159  0.47291153  0.95184392    -0.11900
C2491       C  0.65788941  0.46811624  0.95678063    -0.16000
C2492       C  0.62891796  0.45371052  0.96091567    -0.29900
C2493       C  0.79896438  0.45759509  0.95723535    -0.04100
C2494       C  0.82343746  0.46560026  0.95249463    -0.40700
H2495       H  0.74550610  0.43734118  0.96615006     0.12100
H2496       H  0.68664694  0.44178811  0.96628715     0.11700
H2497       H  0.71015150  0.48620190  0.94789107     0.11200
H2498       H  0.76880454  0.48256765  0.94777504     0.11400
H2499       H  0.65481996  0.48243665  0.95277391     0.14100
H2500       H  0.63012892  0.43805957  0.96487425     0.12900
H2501       H  0.80673693  0.45047662  0.96159786     0.10600
H2502       H  0.81673033  0.47265527  0.94806911     0.12600
C2503       C  0.27583383  0.49169508  0.95324714     0.18700
C2504       C  0.27214189  0.51858001  0.95689922    -0.19400
C2505       C  0.23811640  0.52087210  0.95674139    -0.11700
C2506       C  0.20778839  0.49713528  0.95277566     0.20900
C2507       C  0.21219263  0.47141172  0.94894895    -0.21000
C2508       C  0.24565669  0.46823497  0.94924782    -0.11900
C2509       C  0.17157652  0.49913434  0.95248800    -0.16000
C2510       C  0.15268811  0.49969004  0.95753053    -0.29900
C2511       C  0.31170911  0.48913267  0.95354654    -0.04100
C2512       C  0.31079007  0.45486998  0.95377436    -0.40700
H2513       H  0.29531363  0.53727864  0.95995569     0.12100
H2514       H  0.23567993  0.54150163  0.95964909     0.11700
H2515       H  0.18934331  0.45320032  0.94581064     0.11200
H2516       H  0.24823170  0.44787565  0.94629426     0.11400
H2517       H  0.15850228  0.49683080  0.94805666     0.14100
H2518       H  0.16382273  0.49812278  0.96197178     0.12900
H2519       H  0.33928119  0.51590382  0.95400689     0.10600
H2520       H  0.28307050  0.42806151  0.95397705     0.12600
C2521       C  0.48189334  0.17327492  0.96023913     0.18700
C2522       C  0.45502213  0.17773175  0.95668748    -0.19400
C2523       C  0.45398064  0.21225375  0.95678113    -0.11700
C2524       C  0.48019474  0.24340594  0.96040338     0.20900
C2525       C  0.50650171  0.23873006  0.96406867    -0.21000
C2526       C  0.50761920  0.20410984  0.96396712    -0.11900
C2527       C  0.48055125  0.28088634  0.96052841    -0.16000
C2528       C  0.46831876  0.29396086  0.95585029    -0.29900
C2529       C  0.48265824  0.13654929  0.95963942    -0.04100
C2530       C  0.50221205  0.12474318  0.96326338    -0.40700
H2531       H  0.43470560  0.15436015  0.95379964     0.12100
H2532       H  0.43235499  0.21416894  0.95405521     0.11700
H2533       H  0.52681006  0.26226593  0.96692850     0.11200
H2534       H  0.52910460  0.20212751  0.96671236     0.11400
H2535       H  0.49288881  0.29905861  0.96451303     0.14100
H2536       H  0.45792596  0.27715521  0.95170239     0.12900
H2537       H  0.46556768  0.11786458  0.95592350     0.10600
H2538       H  0.51859222  0.14172566  0.96714730     0.12600
C2539       C  0.49703950  0.74936181  0.95392841     0.18700
C2540       C  0.52123098  0.73826724  0.95688005    -0.19400
C2541       C  0.51426643  0.70033427  0.95644464    -0.11700
C2542       C  0.48234877  0.67228593  0.95312135     0.20900
C2543       C  0.45869185  0.68353364  0.95002889    -0.21000
C2544       C  0.46570400  0.72161242  0.95045596    -0.11900
C2545       C  0.47321097  0.63125994  0.95282423    -0.16000
C2546       C  0.48269288  0.61481787  0.95735569    -0.29900
C2547       C  0.50435192  0.78940243  0.95489129    -0.04100
C2548       C  0.49034090  0.80683350  0.95127372    -0.40700
H2549       H  0.54563600  0.75905589  0.95955471     0.12100
H2550       H  0.53413727  0.69325481  0.95869744     0.11700
H2551       H  0.43408299  0.66253065  0.94741452     0.11200
H2552       H  0.44577367  0.72862139  0.94821519     0.11400
H2553       H  0.45733485  0.61399327  0.94891364     0.14100
H2554       H  0.49649502  0.63138027  0.96142375     0.12900
H2555       H  0.52199953  0.80512142  0.95878374     0.10600
H2556       H  0.47382233  0.79235350  0.94723984     0.12600
C2557       C  0.79508876  0.49590285  0.04801809     0.18700
C2558       C  0.77006659  0.48587329  0.05303374    -0.19400
C2559       C  0.73902519  0.49297033  0.05297430    -0.11700
C2560       C  0.73241448  0.51027422  0.04786534     0.20900
C2561       C  0.75874692  0.52237243  0.04300417    -0.21000
C2562       C  0.78980379  0.51533244  0.04306515    -0.11900
C2563       C  0.69811347  0.51549340  0.04736830    -0.16000
C2564       C  0.66457367  0.49265635  0.05030598    -0.29900
C2565       C  0.82649452  0.48605834  0.04817285    -0.04100
C2566       C  0.84454872  0.48376533  0.04315514    -0.40700
H2567       H  0.77413137  0.47185084  0.05697201     0.12100
H2568       H  0.72036578  0.48479899  0.05692881     0.11700
H2569       H  0.75477422  0.53654796  0.03907744     0.11200
H2570       H  0.80946186  0.52532290  0.03922939     0.11400
H2571       H  0.69956084  0.53680782  0.04411258     0.14100
H2572       H  0.66203678  0.47002796  0.05336215     0.12900
H2573       H  0.83446190  0.47965916  0.05257661     0.10600
H2574       H  0.83662125  0.48918091  0.03869279     0.12600
C2575       C  0.27695105  0.46718564  0.04339363     0.18700
C2576       C  0.24421779  0.43784172  0.04640142    -0.19400
C2577       C  0.20788079  0.43485692  0.04575981    -0.11700
C2578       C  0.20348654  0.46154857  0.04212771     0.20900
C2579       C  0.23591637  0.49038614  0.03900160    -0.21000
C2580       C  0.27237766  0.49347701  0.03965687    -0.11900
C2581       C  0.16574306  0.46044992  0.04154887    -0.16000
C2582       C  0.13852805  0.44665006  0.04596110    -0.29900
C2583       C  0.31499737  0.46932698  0.04442651    -0.04100
C2584       C  0.34746672  0.49115308  0.04114278    -0.40700
H2585       H  0.24673968  0.41701601  0.04927232     0.12100
H2586       H  0.18334255  0.41146293  0.04808492     0.11700
H2587       H  0.23321800  0.51121529  0.03615682     0.11200
H2588       H  0.29670589  0.51690366  0.03731542     0.11400
H2589       H  0.16145808  0.47397309  0.03754564     0.14100
H2590       H  0.14339816  0.43511455  0.05013782     0.12900
H2591       H  0.31599763  0.45118548  0.04804937     0.10600
H2592       H  0.34748277  0.50898813  0.03740671     0.12600
C2593       C  0.50787036  0.28034888  0.04835161     0.18700
C2594       C  0.49772512  0.25679541  0.05356547    -0.19400
C2595       C  0.48779539  0.21779043  0.05312533    -0.11700
C2596       C  0.48811803  0.20174554  0.04744399     0.20900
C2597       C  0.49889085  0.22542587  0.04225889    -0.21000
C2598       C  0.50922333  0.26440956  0.04270508    -0.11900
C2599       C  0.47727746  0.16050310  0.04672314    -0.16000
C2600       C  0.48432407  0.14068525  0.05100987    -0.29900
C2601       C  0.51546201  0.32083522  0.04890518    -0.04100
C2602       C  0.50913316  0.33907678  0.04426523    -0.40700
H2603       H  0.49650370  0.26833573  0.05796549     0.12100
H2604       H  0.47901055  0.20010487  0.05720239     0.11700
H2605       H  0.49976624  0.21380651  0.03784738     0.11200
H2606       H  0.51834363  0.28185004  0.03860825     0.11400
H2607       H  0.46625419  0.14712497  0.04232317     0.14100
H2608       H  0.49819691  0.15479770  0.05524081     0.12900
H2609       H  0.52317405  0.33460386  0.05334147     0.10600
H2610       H  0.49889028  0.32444894  0.03993833     0.12600
C2611       C  0.49525429  0.70311150  0.04229154     0.18700
C2612       C  0.46928192  0.70791712  0.03854894    -0.19400
C2613       C  0.46828362  0.74266001  0.03860114    -0.11700
C2614       C  0.49369723  0.77345127  0.04237546     0.20900
C2615       C  0.52039740  0.76892315  0.04595613    -0.21000
C2616       C  0.52137421  0.73437778  0.04590251    -0.11900
C2617       C  0.49295644  0.81025752  0.04300909    -0.16000
C2618       C  0.47133519  0.82101885  0.03969292    -0.29900
C2619       C  0.49474714  0.66546520  0.04225682    -0.04100
C2620       C  0.50865415  0.65332981  0.04685178    -0.40700
H2621       H  0.44916598  0.68442306  0.03566332     0.12100
H2622       H  0.44717517  0.74475216  0.03577473     0.11700
H2623       H  0.54059082  0.79224512  0.04886211     0.11200
H2624       H  0.54291662  0.73261246  0.04866717     0.11400
H2625       H  0.51141859  0.82969893  0.04655276     0.14100
H2626       H  0.45316886  0.80316417  0.03600932     0.12900
H2627       H  0.48117608  0.64649218  0.03839013     0.10600
H2628       H  0.52040818  0.67085679  0.05089980     0.12600
C2629       C  0.48654973  0.47499935  0.99510372     0.18700
C2630       C  0.46403104  0.48757918  0.99824015    -0.19400
C2631       C  0.45948158  0.48342585  0.00456085    -0.11700
C2632       C  0.47785008  0.46693896  0.00790778     0.20900
C2633       C  0.50038760  0.45439869  0.00476903    -0.21000
C2634       C  0.50494079  0.45855950  0.99845441    -0.11900
C2635       C  0.47468453  0.46238432  0.01464506    -0.16000
C2636       C  0.46460020  0.48280127  0.01838234    -0.29900
C2637       C  0.49022765  0.47983569  0.98837188    -0.04100
C2638       C  0.49996422  0.45897121  0.98467695    -0.40700
H2639       H  0.44948077  0.50029488  0.99577691     0.12100
H2640       H  0.44120015  0.49272968  0.00676385     0.11700
H2641       H  0.51504848  0.44178075  0.00722822     0.11200
H2642       H  0.52336974  0.44940794  0.99625886     0.11400
H2643       H  0.48409721  0.44342133  0.01664932     0.14100
H2644       H  0.45747209  0.50381949  0.01654809     0.12900
H2645       H  0.48215689  0.49977618  0.98634388     0.10600
H2646       H  0.50567375  0.43704032  0.98654524     0.12600
C2647       C  0.89349540  0.29408261  0.08950978     0.18700
C2648       C  0.89248815  0.32847788  0.08848899    -0.19400
C2649       C  0.91049511  0.35175621  0.08337120    -0.11700
C2650       C  0.92961194  0.34090721  0.07907625     0.20900
C2651       C  0.93093132  0.30669027  0.08011983    -0.21000
C2652       C  0.91289220  0.28338266  0.08523674    -0.11900
C2653       C  0.94811502  0.36422734  0.07345579    -0.16000
C2654       C  0.93586944  0.38664314  0.07072187    -0.29900
C2655       C  0.87412711  0.27035850  0.09506627    -0.04100
C2656       C  0.88524489  0.24693626  0.09775174    -0.40700
H2657       H  0.87806822  0.33765851  0.09171113     0.12100
H2658       H  0.90970150  0.37840843  0.08284012     0.11700
H2659       H  0.94535152  0.29752388  0.07689469     0.11200
H2660       H  0.91367974  0.25672428  0.08575709     0.11400
H2661       H  0.97032357  0.36029285  0.07122871     0.14100
H2662       H  0.91162933  0.38833712  0.07265118     0.12900
H2663       H  0.85217125  0.27471732  0.09728694     0.10600
H2664       H  0.90923481  0.24475152  0.09583273     0.12600
C2665       C  0.82054651  0.15389762  0.16189678     0.18700
C2666       C  0.85088407  0.18583931  0.16485148    -0.19400
C2667       C  0.84690067  0.19426261  0.17088258    -0.11700
C2668       C  0.81255161  0.17037432  0.17413501     0.20900
C2669       C  0.78218991  0.13839809  0.17117935    -0.21000
C2670       C  0.78613791  0.13004121  0.16513506    -0.11900
C2671       C  0.80767784  0.17699845  0.18064501    -0.16000
C2672       C  0.83776886  0.19530203  0.18448152    -0.29900
C2673       C  0.82556686  0.14752960  0.15538846    -0.04100
C2674       C  0.79574869  0.13078962  0.15147263    -0.40700
H2675       H  0.87753520  0.20487086  0.16244017     0.12100
H2676       H  0.87061617  0.21975216  0.17293042     0.11700
H2677       H  0.75553083  0.11939869  0.17359078     0.11200
H2678       H  0.76239993  0.10470143  0.16305457     0.11400
H2679       H  0.77838192  0.16239533  0.18249255     0.14100
H2680       H  0.86727012  0.20708532  0.18283711     0.12900
H2681       H  0.85500841  0.16171765  0.15359996     0.10600
H2682       H  0.76622081  0.11958072  0.15307283     0.12600
C2683       C  0.04072937  0.15862055  0.12336023     0.18700
C2684       C  0.07440476  0.17908896  0.11984542    -0.19400
C2685       C  0.10609804  0.17354549  0.12073221    -0.11700
C2686       C  0.10473783  0.14711857  0.12514555     0.20900
C2687       C  0.07048909  0.12536682  0.12848526    -0.21000
C2688       C  0.03882700  0.13119193  0.12763897    -0.11900
C2689       C  0.13837818  0.14107338  0.12609859    -0.16000
C2690       C  0.17484972  0.17075014  0.12555360    -0.29900
C2691       C  0.00778702  0.16570386  0.12232376    -0.04100
C2692       C  0.98231971  0.16080281  0.12672991    -0.40700
H2693       H  0.07633286  0.19971234  0.11643600     0.12100
H2694       H  0.13147765  0.18960024  0.11788660     0.11700
H2695       H  0.06840373  0.10417619  0.13179652     0.11200
H2696       H  0.01275501  0.11369726  0.13026647     0.11400
H2697       H  0.13308014  0.11189614  0.12696203     0.14100
H2698       H  0.17953715  0.19979397  0.12478173     0.12900
H2699       H  0.00511044  0.17621754  0.11788383     0.10600
H2700       H  0.98607965  0.15213069  0.13125088     0.12600
C2701       C  0.61051723  0.15314744  0.11807259     0.18700
C2702       C  0.59145369  0.15781213  0.11306643    -0.19400
C2703       C  0.55308737  0.14982872  0.11359151    -0.11700
C2704       C  0.53291927  0.13678822  0.11915334     0.20900
C2705       C  0.55128304  0.13001248  0.12405733    -0.21000
C2706       C  0.58965706  0.13811618  0.12353721    -0.11900
C2707       C  0.49311364  0.13061757  0.12001562    -0.16000
C2708       C  0.48014340  0.15080291  0.11684330    -0.29900
C2709       C  0.65165965  0.16284637  0.11746086    -0.04100
C2710       C  0.67583335  0.17540150  0.12223030    -0.40700
H2711       H  0.60650345  0.16828636  0.10876844     0.12100
H2712       H  0.53936611  0.15379108  0.10962208     0.11700
H2713       H  0.53617138  0.11917652  0.12834442     0.11200
H2714       H  0.60277050  0.13229627  0.12741284     0.11400
H2715       H  0.47526690  0.11129816  0.12364144     0.14100
H2716       H  0.49885773  0.17199313  0.11349000     0.12900
H2717       H  0.66183634  0.15867361  0.11309341     0.10600
H2718       H  0.66557943  0.18004162  0.12655485     0.12600
C2719       C  0.41341771  0.05510572  0.07863568     0.18700
C2720       C  0.42104902  0.09343995  0.07925622    -0.19400
C2721       C  0.40371031  0.10354390  0.08391576    -0.11700
C2722       C  0.37860168  0.07549337  0.08813846     0.20900
C2723       C  0.37112876  0.03721493  0.08752891    -0.21000
C2724       C  0.38848029  0.02712636  0.08287639    -0.11900
C2725       C  0.35994708  0.08481241  0.09326302    -0.16000
C2726       C  0.37427738  0.12067179  0.09560435    -0.29900
C2727       C  0.43163190  0.04551403  0.07348471    -0.04100
C2728       C  0.41685937  0.00953044  0.07116474    -0.40700
H2729       H  0.44003465  0.11559178  0.07605475     0.12100
H2730       H  0.40966106  0.13318304  0.08411401     0.11700
H2731       H  0.35215654  0.01504300  0.09072794     0.11200
H2732       H  0.38258527  0.99750347  0.08268986     0.11400
H2733       H  0.33542237  0.06068817  0.09552261     0.14100
H2734       H  0.40044985  0.14468663  0.09370037     0.12900
H2735       H  0.45631566  0.06946193  0.07122476     0.10600
H2736       H  0.39066818  0.98570150  0.07309796     0.12600
C2737       C  0.31349070  0.18423745  0.15902197     0.18700
C2738       C  0.34816850  0.19743038  0.16227431    -0.19400
C2739       C  0.34776289  0.19287610  0.16858186    -0.11700
C2740       C  0.31250117  0.17559954  0.17181606     0.20900
C2741       C  0.27778653  0.16290356  0.16856779    -0.21000
C2742       C  0.27819385  0.16724200  0.16223909    -0.11900
C2743       C  0.31050826  0.16928859  0.17851815    -0.16000
C2744       C  0.34082399  0.18843149  0.18232602    -0.29900
C2745       C  0.31573767  0.18830266  0.15229194    -0.04100
C2746       C  0.28727032  0.16430258  0.14848963    -0.40700
H2747       H  0.37573910  0.21048427  0.15989984     0.12100
H2748       H  0.37510252  0.20217294  0.17084926     0.11700
H2749       H  0.25020215  0.14958684  0.17093963     0.11200
H2750       H  0.25095115  0.15752009  0.15990381     0.11400
H2751       H  0.28228399  0.14894213  0.18042543     0.14100
H2752       H  0.36874241  0.21068639  0.18061297     0.12900
H2753       H  0.34355698  0.20970364  0.15038774     0.10600
H2754       H  0.25998486  0.14134438  0.15029551     0.12600
C2755       C  0.58264477  0.14984435  0.21113995     0.18700
C2756       C  0.54776686  0.12181655  0.21379131    -0.19400
C2757       C  0.51398141  0.12380161  0.21305673    -0.11700
C2758       C  0.51423749  0.15402728  0.20968855     0.20900
C2759       C  0.54921113  0.18230398  0.20703142    -0.21000
C2760       C  0.58311433  0.18028064  0.20776518    -0.11900
C2761       C  0.47764664  0.15537035  0.20941151    -0.16000
C2762       C  0.47173070  0.18132786  0.20629042    -0.29900
C2763       C  0.61797004  0.14689572  0.21216359    -0.04100
C2764       C  0.64898585  0.16333414  0.20846131    -0.40700
H2765       H  0.54662772  0.09825490  0.21644438     0.12100
H2766       H  0.48753402  0.10173153  0.21519787     0.11700
H2767       H  0.55093841  0.20643138  0.20449563     0.11200
H2768       H  0.60969625  0.20320993  0.20581438     0.11400
H2769       H  0.45396326  0.13351460  0.21213731     0.14100
H2770       H  0.49404557  0.20320564  0.20340116     0.12900
H2771       H  0.61777818  0.12928238  0.21596976     0.10600
H2772       H  0.64883381  0.17913581  0.20444136     0.12600
C2773       C  0.09850418  0.18852259  0.21218086     0.18700
C2774       C  0.06787222  0.15499552  0.21488587    -0.19400
C2775       C  0.03015711  0.14920286  0.21494156    -0.11700
C2776       C  0.02231487  0.17675511  0.21228048     0.20900
C2777       C  0.05305829  0.21048974  0.20971806    -0.21000
C2778       C  0.09064303  0.21627375  0.20966396    -0.11900
C2779       C  0.98257337  0.17082778  0.21167512    -0.16000
C2780       C  0.95073130  0.14350557  0.21460329    -0.29900
C2781       C  0.13822071  0.19437846  0.21144558    -0.04100
C2782       C  0.15176573  0.17483758  0.21464244    -0.40700
H2783       H  0.07227246  0.13227850  0.21673603     0.12100
H2784       H  0.00725611  0.12248707  0.21685998     0.11700
H2785       H  0.04786438  0.23219633  0.20762715     0.11200
H2786       H  0.11356150  0.24223457  0.20753334     0.11400
H2787       H  0.97958982  0.19078446  0.20863089     0.14100
H2788       H  0.95259116  0.12424859  0.21791361     0.12900
H2789       H  0.15687476  0.21532245  0.20804745     0.10600
H2790       H  0.13431479  0.15480278  0.21820842     0.12600
C2791       C  0.80379838  0.94568365  0.12954647     0.18700
C2792       C  0.77699595  0.91342702  0.12617933    -0.19400
C2793       C  0.77725169  0.87847083  0.12638357    -0.11700
C2794       C  0.80479644  0.87494731  0.12992188     0.20900
C2795       C  0.83049481  0.90655675  0.13351916    -0.21000
C2796       C  0.83024489  0.94171443  0.13331731    -0.11900
C2797       C  0.80782205  0.83906373  0.12986960    -0.16000
C2798       C  0.79654070  0.81472082  0.12508542    -0.29900
C2799       C  0.80416517  0.98298064  0.12860780    -0.04100
C2800       C  0.82470589  0.01576431  0.13186917    -0.40700
H2801       H  0.75599021  0.91541241  0.12328625     0.12100
H2802       H  0.75583319  0.85439877  0.12374218     0.11700
H2803       H  0.85169694  0.90445560  0.13634319     0.11200
H2804       H  0.85152503  0.96576635  0.13597008     0.11400
H2805       H  0.82180868  0.83381510  0.13370982     0.14100
H2806       H  0.78457590  0.82089283  0.12108166     0.12900
H2807       H  0.78664628  0.98346850  0.12485165     0.10600
H2808       H  0.84185163  0.01642413  0.13574623     0.12600
C2809       C  0.81800447  0.45369727  0.11836858     0.18700
C2810       C  0.79185171  0.41772314  0.11578583    -0.19400
C2811       C  0.79806146  0.38604321  0.11633869    -0.11700
C2812       C  0.83095634  0.39005760  0.11942600     0.20900
C2813       C  0.85751895  0.42632027  0.12183671    -0.21000
C2814       C  0.85142697  0.45783360  0.12126259    -0.11900
C2815       C  0.83780180  0.35702462  0.12054228    -0.16000
C2816       C  0.82311281  0.32503320  0.11706982    -0.29900
C2817       C  0.80999638  0.48652002  0.11810359    -0.04100
C2818       C  0.82120957  0.51263109  0.12263022    -0.40700
H2819       H  0.76600076  0.41381822  0.11350590     0.12100
H2820       H  0.77646780  0.35834643  0.11451993     0.11700
H2821       H  0.88316375  0.43029943  0.12419661     0.11200
H2822       H  0.87304315  0.48546665  0.12310308     0.11400
H2823       H  0.85616361  0.35947794  0.12437200     0.14100
H2824       H  0.80584374  0.32262971  0.11310095     0.12900
H2825       H  0.79371352  0.48845803  0.11428357     0.10600
H2826       H  0.83514815  0.50881960  0.12661136     0.12600
C2827       C  0.10076460  0.94768505  0.12469149     0.18700
C2828       C  0.06968907  0.94310686  0.12835204    -0.19400
C2829       C  0.03534153  0.90713325  0.12875359    -0.11700
C2830       C  0.03177363  0.87496470  0.12553530     0.20900
C2831       C  0.06324942  0.87950803  0.12201670    -0.21000
C2832       C  0.09732979  0.91522907  0.12161596    -0.11900
C2833       C  0.99562930  0.83662117  0.12534288    -0.16000
C2834       C  0.96438012  0.82458031  0.12899924    -0.29900
C2835       C  0.13691734  0.98607401  0.12437277    -0.04100
C2836       C  0.16296399  0.99703069  0.11977565    -0.40700
H2837       H  0.07178936  0.96758456  0.13083394     0.12100
H2838       H  0.01167336  0.90501123  0.13146854     0.11700
H2839       H  0.06145987  0.85519406  0.11952498     0.11200
H2840       H  0.12101402  0.91699320  0.11894939     0.11400
H2841       H  0.99482692  0.81697042  0.12184527     0.14100
H2842       H  0.96418536  0.84275513  0.13265080     0.12900
H2843       H  0.14202545  0.00620282  0.12806148     0.10600
H2844       H  0.15734167  0.97834054  0.11587444     0.12600
C2845       C  0.53399227  0.36741780  0.11907416     0.18700
C2846       C  0.56638215  0.38146314  0.11524786    -0.19400
C2847       C  0.59692330  0.41958890  0.11580749    -0.11700
C2848       C  0.59537091  0.44474150  0.12018343     0.20900
C2849       C  0.56222676  0.43085525  0.12386253    -0.21000
C2850       C  0.53183308  0.39274336  0.12331069    -0.11900
C2851       C  0.62768866  0.48501089  0.12123772    -0.16000
C2852       C  0.66079260  0.50185457  0.11800372    -0.29900
C2853       C  0.50229284  0.32665408  0.11846434    -0.04100
C2854       C  0.48034709  0.30658818  0.12324197    -0.40700
H2855       H  0.56840173  0.36263334  0.11189332     0.12100
H2856       H  0.62150071  0.42847837  0.11282797     0.11700
H2857       H  0.55988787  0.44951044  0.12721556     0.11200
H2858       H  0.50652035  0.38337553  0.12616955     0.11400
H2859       H  0.62446227  0.50114297  0.12495847     0.14100
H2860       H  0.66504781  0.48697151  0.11423057     0.12900
H2861       H  0.49683284  0.31310518  0.11401479     0.10600
H2862       H  0.48686379  0.31974351  0.12772312     0.12600
C2863       C  0.68788450  0.58814422  0.08955653     0.18700
C2864       C  0.65928977  0.54962316  0.08835981    -0.19400
C2865       C  0.63382595  0.54061164  0.08343782    -0.11700
C2866       C  0.63664984  0.57000890  0.07951126     0.20900
C2867       C  0.66540662  0.60848730  0.08067996    -0.21000
C2868       C  0.69091430  0.61749321  0.08559415    -0.11900
C2869       C  0.61043363  0.56187126  0.07416479    -0.16000
C2870       C  0.59190851  0.52715745  0.07137025    -0.29900
C2871       C  0.71323234  0.59638473  0.09502727    -0.04100
C2872       C  0.73199898  0.63138524  0.09773760    -0.40700
H2873       H  0.65611722  0.52638893  0.09132227     0.12100
H2874       H  0.61159809  0.51067079  0.08281812     0.11700
H2875       H  0.66848547  0.63172164  0.07772610     0.11200
H2876       H  0.71310224  0.64744671  0.08620364     0.11400
H2877       H  0.60854851  0.58600535  0.07220451     0.14100
H2878       H  0.59563279  0.50350234  0.07303084     0.12900
H2879       H  0.71400191  0.57210340  0.09716782     0.10600
H2880       H  0.72962976  0.65538323  0.09586810     0.12600
C2881       C  0.04717810  0.88400693  0.21326497     0.18700
C2882       C  0.08243447  0.89298038  0.21048998    -0.19400
C2883       C  0.11386320  0.93074275  0.21063669    -0.11700
C2884       C  0.11031700  0.96049758  0.21347228     0.20900
C2885       C  0.07532133  0.95136952  0.21636762    -0.21000
C2886       C  0.04387515  0.91352746  0.21623522    -0.11900
C2887       C  0.14250956  0.00122720  0.21349596    -0.16000
C2888       C  0.16932595  0.01614258  0.20904777    -0.29900
C2889       C  0.01394040  0.84417610  0.21264853    -0.04100
C2890       C  0.98447037  0.82796723  0.21665608    -0.40700
H2891       H  0.08565047  0.87065684  0.20819559     0.12100
H2892       H  0.14084185  0.93641893  0.20854594     0.11700
H2893       H  0.07198169  0.97380298  0.21859721     0.11200
H2894       H  0.01680529  0.90785279  0.21829169     0.11400
H2895       H  0.14301454  0.01993239  0.21713307     0.14100
H2896       H  0.16778714  0.99834722  0.20520612     0.12900
H2897       H  0.01405747  0.82749878  0.20874718     0.10600
H2898       H  0.98476834  0.84357764  0.22071653     0.12600
C2899       C  0.53181090  0.39357321  0.20850166     0.18700
C2900       C  0.56202480  0.40099386  0.20444300    -0.19400
C2901       C  0.59777616  0.43533746  0.20481760    -0.11700
C2902       C  0.60394499  0.46328482  0.20925748     0.20900
C2903       C  0.57320304  0.45639673  0.21317126    -0.21000
C2904       C  0.53753524  0.42209092  0.21279750    -0.11900
C2905       C  0.64191929  0.49923447  0.21018493    -0.16000
C2906       C  0.67384301  0.51078984  0.20671026    -0.29900
C2907       C  0.49477721  0.35607250  0.20805264    -0.04100
C2908       C  0.46899191  0.34057432  0.21264697    -0.40700
H2909       H  0.55821919  0.37974109  0.20103781     0.12100
H2910       H  0.62034736  0.43918740  0.20168410     0.11700
H2911       H  0.57687161  0.47755281  0.21658726     0.11200
H2912       H  0.51462336  0.41833514  0.21585944     0.11400
H2913       H  0.64372098  0.51704112  0.21405143     0.14100
H2914       H  0.67327285  0.49468874  0.20271137     0.12900
H2915       H  0.48928446  0.33992486  0.20384092     0.10600
H2916       H  0.47475540  0.35523823  0.21699315     0.12600
C2917       C  0.79643711  0.93064467  0.21609916     0.18700
C2918       C  0.82800802  0.92828512  0.21844672    -0.19400
C2919       C  0.83013125  0.89441949  0.21776271    -0.11700
C2920       C  0.80034958  0.86198776  0.21476146     0.20900
C2921       C  0.76831831  0.86401442  0.21256587    -0.21000
C2922       C  0.76607010  0.89772411  0.21328460    -0.11900
C2923       C  0.80242350  0.82629393  0.21358937    -0.16000
C2924       C  0.82282211  0.81502557  0.21707672    -0.29900
C2925       C  0.79677301  0.96813704  0.21649135    -0.04100
C2926       C  0.77725840  0.97807322  0.21256058    -0.40700
H2927       H  0.85171214  0.95314801  0.22064845     0.12100
H2928       H  0.85571973  0.89432615  0.21940626     0.11700
H2929       H  0.74489434  0.83936726  0.21027847     0.11200
H2930       H  0.74047878  0.89770032  0.21161924     0.11400
H2931       H  0.78569020  0.80815108  0.20980289     0.14100
H2932       H  0.83783858  0.83163807  0.22107903     0.12900
H2933       H  0.81586598  0.98924924  0.21980830     0.10600
H2934       H  0.75976053  0.95813219  0.20901049     0.12600
C2935       C  0.84480712  0.38499198  0.21211875     0.18700
C2936       C  0.82054400  0.39255730  0.20838515    -0.19400
C2937       C  0.82397842  0.42932627  0.20831111    -0.11700
C2938       C  0.85171105  0.45931850  0.21197667     0.20900
C2939       C  0.87590030  0.45168226  0.21567258    -0.21000
C2940       C  0.87247727  0.41498373  0.21574586    -0.11900
C2941       C  0.85437557  0.49784678  0.21247078    -0.16000
C2942       C  0.83961644  0.51217463  0.20837041    -0.29900
C2943       C  0.84076927  0.34588140  0.21265659    -0.04100
C2944       C  0.82289244  0.31762138  0.20850466    -0.40700
H2945       H  0.79789297  0.36997495  0.20568045     0.12100
H2946       H  0.80381322  0.43346948  0.20555660     0.11700
H2947       H  0.89722741  0.47409094  0.21858629     0.11200
H2948       H  0.89129058  0.40989525  0.21870363     0.11400
H2949       H  0.86893033  0.51504671  0.21646064     0.14100
H2950       H  0.82641386  0.49645799  0.20421836     0.12900
H2951       H  0.85338497  0.34029289  0.21664854     0.10600
H2952       H  0.81142595  0.32290080  0.20436385     0.12600
C2953       C  0.82294208  0.66815754  0.17442347     0.18700
C2954       C  0.85058215  0.66338069  0.17113743    -0.19400
C2955       C  0.85754224  0.67341830  0.16496712    -0.11700
C2956       C  0.83648155  0.68802840  0.16186924     0.20900
C2957       C  0.80937412  0.69354171  0.16518044    -0.21000
C2958       C  0.80245922  0.68356681  0.17136019    -0.11900
C2959       C  0.84058456  0.69628164  0.15517994    -0.16000
C2960       C  0.85465757  0.68022381  0.15126712    -0.29900
C2961       C  0.81662761  0.65671833  0.18099826    -0.04100
C2962       C  0.79985421  0.66941833  0.18501919    -0.40700
H2963       H  0.86710026  0.65196493  0.17336685     0.12100
H2964       H  0.87955120  0.66972230  0.16268213     0.11700
H2965       H  0.79267592  0.70470204  0.16293606     0.11200
H2966       H  0.78042425  0.68722351  0.17364339     0.11400
H2967       H  0.82767838  0.71264083  0.15333608     0.14100
H2968       H  0.86490417  0.66130239  0.15296219     0.12900
H2969       H  0.82882971  0.63935696  0.18268522     0.10600
H2970       H  0.78984185  0.68895678  0.18353791     0.12600
C2971       C  0.73270382  0.00885370  0.24381544     0.18700
C2972       C  0.75940323  0.00549926  0.24756975    -0.19400
C2973       C  0.74732897  0.98338293  0.25290885    -0.11700
C2974       C  0.70784804  0.96317598  0.25458156     0.20900
C2975       C  0.68112015  0.96694541  0.25086781    -0.21000
C2976       C  0.69329460  0.98937217  0.24552842    -0.11900
C2977       C  0.69382451  0.93872228  0.26020487    -0.16000
C2978       C  0.71385860  0.92388612  0.26298091    -0.29900
C2979       C  0.74721884  0.03183053  0.23808361    -0.04100
C2980       C  0.72921950  0.04821147  0.23513821    -0.40700
H2981       H  0.78994137  0.02037282  0.24638913     0.12100
H2982       H  0.76927094  0.98274685  0.25572598     0.11700
H2983       H  0.65059299  0.95198282  0.25205225     0.11200
H2984       H  0.67165565  0.99058668  0.24270471     0.11400
H2985       H  0.66581537  0.93216737  0.26204398     0.14100
H2986       H  0.74099162  0.92870512  0.26103971     0.12900
H2987       H  0.77481987  0.03653752  0.23633321     0.10600
H2988       H  0.70250419  0.04532022  0.23694847     0.12600
C2989       C  0.67570310  0.80980181  0.33859329     0.18700
C2990       C  0.64177511  0.78500011  0.33536948    -0.19400
C2991       C  0.64262579  0.78059205  0.32907067    -0.11700
C2992       C  0.67755288  0.80152033  0.32579465     0.20900
C2993       C  0.71171396  0.82555978  0.32904961    -0.21000
C2994       C  0.71088609  0.82978750  0.33537109    -0.11900
C2995       C  0.67962699  0.80002329  0.31901335    -0.16000
C2996       C  0.64858590  0.78712775  0.31530058    -0.29900
C2997       C  0.67245671  0.81444303  0.34525329    -0.04100
C2998       C  0.70188998  0.82637507  0.34927001    -0.40700
H2999       H  0.61432521  0.76888010  0.33774344     0.12100
H3000       H  0.61577649  0.76076025  0.32683169     0.11700
H3001       H  0.73909146  0.84192422  0.32666885     0.11200
H3002       H  0.73759280  0.84949815  0.33766718     0.11400
H3003       H  0.70833518  0.81297321  0.31697208     0.14100
H3004       H  0.61979912  0.77629132  0.31718644     0.12900
H3005       H  0.64343740  0.80487400  0.34698652     0.10600
H3006       H  0.73069613  0.83366344  0.34773906     0.12600
C3007       C  0.88044154  0.80182754  0.37646044     0.18700
C3008       C  0.90857920  0.82346132  0.37202134    -0.19400
C3009       C  0.94508579  0.82619812  0.37208670    -0.11700
C3010       C  0.95441901  0.80714200  0.37661609     0.20900
C3011       C  0.92607947  0.78510129  0.38101196    -0.21000
C3012       C  0.88956696  0.78238559  0.38094680    -0.11900
C3013       C  0.99287648  0.80906438  0.37699339    -0.16000
C3014       C  0.02393609  0.83073478  0.37337914    -0.29900
C3015       C  0.84204048  0.79996382  0.37609666    -0.04100
C3016       C  0.81449487  0.78624780  0.38049545    -0.40700
H3017       H  0.90234036  0.83852043  0.36847396     0.12100
H3018       H  0.96552377  0.84317884  0.36856304     0.11700
H3019       H  0.93219921  0.76981181  0.38453552     0.11200
H3020       H  0.86869287  0.76469917  0.38437942     0.11400
H3021       H  0.99592173  0.79198649  0.38059391     0.14100
H3022       H  0.02261621  0.84884668  0.36980721     0.12900
H3023       H  0.83666556  0.81166132  0.37197212     0.10600
H3024       H  0.81918013  0.77548835  0.38476028     0.12600
C3025       C  0.46155591  0.82027922  0.37761317     0.18700
C3026       C  0.44747292  0.82660286  0.38309690    -0.19400
C3027       C  0.42018910  0.83896985  0.38309518    -0.11700
C3028       C  0.40612729  0.84504805  0.37758138     0.20900
C3029       C  0.42064380  0.83952838  0.37209380    -0.21000
C3030       C  0.44776641  0.82689285  0.37208823    -0.11900
C3031       C  0.37518288  0.85548670  0.37738977    -0.16000
C3032       C  0.34661926  0.84223184  0.38155722    -0.29900
C3033       C  0.49078568  0.80732429  0.37793876    -0.04100
C3034       C  0.51223709  0.80744237  0.37319187    -0.40700
H3035       H  0.45774180  0.82208703  0.38741713     0.12100
H3036       H  0.41029677  0.84387723  0.38741297     0.11700
H3037       H  0.41010318  0.84392591  0.36779016     0.11200
H3038       H  0.45711584  0.82189382  0.36774141     0.11400
H3039       H  0.37331225  0.87045189  0.37337050     0.14100
H3040       H  0.34669472  0.82458044  0.38532989     0.12900
H3041       H  0.49657242  0.79954777  0.38240360     0.10600
H3042       H  0.50850214  0.81658422  0.36871968     0.12600
C3043       C  0.45364711  0.83282175  0.28735390     0.18700
C3044       C  0.44817271  0.86500012  0.28733277    -0.19400
C3045       C  0.41219209  0.86091510  0.28889419    -0.11700
C3046       C  0.38036924  0.82416043  0.29035607     0.20900
C3047       C  0.38593459  0.79197656  0.29038801    -0.21000
C3048       C  0.42204180  0.79614468  0.28887794    -0.11900
C3049       C  0.34081265  0.81812443  0.29162309    -0.16000
C3050       C  0.32920292  0.84220929  0.28940958    -0.29900
C3051       C  0.49280862  0.83846030  0.28595424    -0.04100
C3052       C  0.50593928  0.81730090  0.28877406    -0.40700
H3053       H  0.47208059  0.89357472  0.28623640     0.12100
H3054       H  0.40976337  0.88680171  0.28900497     0.11700
H3055       H  0.36204763  0.76335236  0.29146659     0.11200
H3056       H  0.42494294  0.77048715  0.28882155     0.11400
H3057       H  0.31967797  0.79140394  0.29385347     0.14100
H3058       H  0.34921025  0.86716634  0.28672086     0.12900
H3059       H  0.51221145  0.86239824  0.28302050     0.10600
H3060       H  0.48745270  0.79573856  0.29210936     0.12600
C3061       C  0.86151040  0.79220922  0.29024288     0.18700
C3062       C  0.87535561  0.78584103  0.29575296    -0.19400
C3063       C  0.90577386  0.77776356  0.29581465    -0.11700
C3064       C  0.92299201  0.77576118  0.29036481     0.20900
C3065       C  0.90787683  0.78029240  0.28481808    -0.21000
C3066       C  0.87760622  0.78862642  0.28475924    -0.11900
C3067       C  0.95729971  0.77018022  0.29065290    -0.16000
C3068       C  0.98418509  0.78278217  0.28622215    -0.29900
C3069       C  0.82914159  0.80068981  0.29044515    -0.04100
C3070       C  0.81989235  0.81754541  0.28590067    -0.40700
H3071       H  0.86295266  0.78768720  0.30004189     0.12100
H3072       H  0.91646057  0.77393790  0.30014382     0.11700
H3073       H  0.91903088  0.77715424  0.28050055     0.11200
H3074       H  0.86658443  0.79157644  0.28041484     0.11400
H3075       H  0.96248133  0.75891131  0.29484246     0.14100
H3076       H  0.98067223  0.79663841  0.28220690     0.12900
H3077       H  0.81252563  0.79322980  0.29464968     0.10600
H3078       H  0.83696505  0.82688711  0.28175246     0.12600
C3079       C  0.16536819  0.82828462  0.33900255     0.18700
C3080       C  0.18273831  0.81135680  0.33553328    -0.19400
C3081       C  0.18677258  0.81634263  0.32921130    -0.11700
C3082       C  0.17359726  0.83870882  0.32612571     0.20900
C3083       C  0.15598295  0.85548981  0.32958525    -0.21000
C3084       C  0.15192927  0.85047504  0.33592823    -0.11900
C3085       C  0.17573049  0.84362163  0.31933152    -0.16000
C3086       C  0.19564522  0.83280014  0.31558883    -0.29900
C3087       C  0.16237615  0.82183132  0.34576133    -0.04100
C3088       C  0.15032117  0.83914150  0.34982249    -0.40700
H3089       H  0.19324467  0.79393751  0.33772935     0.12100
H3090       H  0.19963935  0.80189019  0.32680982     0.11700
H3091       H  0.14509445  0.87249875  0.32736260     0.11200
H3092       H  0.13799698  0.86383645  0.33834651     0.11400
H3093       H  0.15894848  0.85551805  0.31730242     0.14100
H3094       H  0.21261178  0.82074310  0.31744066     0.12900
H3095       H  0.17250498  0.80286468  0.34752084     0.10600
H3096       H  0.14130826  0.85936311  0.34829303     0.12600
C3097       C  0.02033400  0.73453982  0.25503466     0.18700
C3098       C  0.01170617  0.75788054  0.25129778    -0.19400
C3099       C  0.98946343  0.74293247  0.24603370    -0.11700
C3100       C  0.97446303  0.70377657  0.24439220     0.20900
C3101       C  0.98378777  0.68052492  0.24804012    -0.21000
C3102       C  0.00617568  0.69554287  0.25332812    -0.11900
C3103       C  0.94960759  0.68706682  0.23886811    -0.16000
C3104       C  0.92713862  0.70105162  0.23675512    -0.29900
C3105       C  0.04302107  0.75189034  0.26072503    -0.04100
C3106       C  0.06140916  0.73671781  0.26387251    -0.40700
H3107       H  0.02237650  0.78801538  0.25244405     0.12100
H3108       H  0.98448257  0.76242225  0.24323081     0.11700
H3109       H  0.97298138  0.65040532  0.24687156     0.11200
H3110       H  0.01139954  0.67615555  0.25610788     0.11400
H3111       H  0.94971457  0.66303809  0.23654481     0.14100
H3112       H  0.92593504  0.72385789  0.23927807     0.12900
H3113       H  0.04524038  0.77877941  0.26231996     0.10600
H3114       H  0.06089212  0.71076853  0.26223487     0.12600
C3115       C  0.93774320  0.08670838  0.37787351     0.18700
C3116       C  0.93752444  0.05631311  0.37455686    -0.19400
C3117       C  0.90425037  0.01943642  0.37432353    -0.11700
C3118       C  0.87034639  0.01225236  0.37741176     0.20900
C3119       C  0.87082007  0.04247311  0.38078859    -0.21000
C3120       C  0.90387802  0.07922282  0.38100191    -0.11900
C3121       C  0.83368605  0.97417475  0.37737218    -0.16000
C3122       C  0.82471736  0.94367672  0.37366114    -0.29900
C3123       C  0.97327168  0.12585033  0.37771241    -0.04100
C3124       C  0.97957604  0.15659345  0.38117607    -0.40700
H3125       H  0.96321051  0.06117278  0.37210136     0.12100
H3126       H  0.90536218  0.99687175  0.37175196     0.11700
H3127       H  0.84514297  0.03781660  0.38322668     0.11200
H3128       H  0.90221845  0.10157455  0.38353766     0.11400
H3129       H  0.81187817  0.97174492  0.38060227     0.14100
H3130       H  0.84541633  0.94462325  0.37035471     0.12900
H3131       H  0.99571279  0.12940404  0.37452103     0.10600
H3132       H  0.95883146  0.15400434  0.38460413     0.12600
C3133       C  0.35208404  0.52767054  0.37798065     0.18700
C3134       C  0.37213812  0.54594602  0.38332708    -0.19400
C3135       C  0.41167142  0.57378086  0.38314819    -0.11700
C3136       C  0.43198460  0.58409322  0.37758733     0.20900
C3137       C  0.41200105  0.56599981  0.37224965    -0.21000
C3138       C  0.37245812  0.53856229  0.37241352    -0.11900
C3139       C  0.47381402  0.61375789  0.37715449    -0.16000
C3140       C  0.49071272  0.64445091  0.38089544    -0.29900
C3141       C  0.31046195  0.49680306  0.37842833    -0.04100
C3142       C  0.29229220  0.46987512  0.37409012    -0.40700
H3143       H  0.35732215  0.53817484  0.38767757     0.12100
H3144       H  0.42634363  0.58660701  0.38737546     0.11700
H3145       H  0.42691957  0.57367021  0.36790702     0.11200
H3146       H  0.35820509  0.52643626  0.36814209     0.11400
H3147       H  0.49022693  0.61213832  0.37332241     0.14100
H3148       H  0.47366041  0.64781288  0.38445197     0.12900
H3149       H  0.29524615  0.49431798  0.38266185     0.10600
H3150       H  0.30761254  0.47050105  0.36997736     0.12600
C3151       C  0.16554576  0.11562715  0.37829796     0.18700
C3152       C  0.19810235  0.11364394  0.38026514    -0.19400
C3153       C  0.19954054  0.07935643  0.37963517    -0.11700
C3154       C  0.16813160  0.04615870  0.37706619     0.20900
C3155       C  0.13560328  0.04810893  0.37511520    -0.21000
C3156       C  0.13404735  0.08223454  0.37577866    -0.11900
C3157       C  0.16829223  0.00914582  0.37629905    -0.16000
C3158       C  0.18751886  0.99790860  0.38005817    -0.29900
C3159       C  0.16504217  0.15256251  0.37906243    -0.04100
C3160       C  0.14233314  0.16167851  0.37572160    -0.40700
H3161       H  0.22269488  0.13885087  0.38223489     0.12100
H3162       H  0.22548414  0.07918444  0.38106942     0.11700
H3163       H  0.11095859  0.02286534  0.37316291     0.11200
H3164       H  0.10778549  0.08190798  0.37440552     0.11400
H3165       H  0.14994723  0.98942491  0.37277338     0.14100
H3166       H  0.20377467  0.01621112  0.38385375     0.12900
H3167       H  0.18465999  0.17325566  0.38237926     0.10600
H3168       H  0.12399699  0.14218687  0.37218874     0.12600
C3169       C  0.17094655  0.62080043  0.37429127     0.18700
C3170       C  0.13445278  0.58721052  0.37475641    -0.19400
C3171       C  0.13130797  0.55138577  0.37613658    -0.11700
C3172       C  0.16479979  0.54826215  0.37696899     0.20900
C3173       C  0.20129863  0.58184918  0.37645909    -0.21000
C3174       C  0.20442752  0.61770236  0.37509957    -0.11900
C3175       C  0.16282540  0.51057843  0.37831492    -0.16000
C3176       C  0.13271189  0.47636043  0.37659857    -0.29900
C3177       C  0.17298677  0.65867470  0.37316389    -0.04100
C3178       C  0.20157987  0.69204037  0.37544387    -0.40700
H3179       H  0.10823420  0.58885876  0.37419865     0.12100
H3180       H  0.10258152  0.52648571  0.37665435     0.11700
H3181       H  0.22753050  0.58026245  0.37704326     0.11200
H3182       H  0.23308794  0.64281791  0.37463567     0.11400
H3183       H  0.18809462  0.51121349  0.38033023     0.14100
H3184       H  0.10862122  0.47564557  0.37416776     0.12900
H3185       H  0.14823047  0.65854151  0.37103931     0.10600
H3186       H  0.22437989  0.69179814  0.37812647     0.12600
C3187       C  0.88706701  0.05175418  0.28520905     0.18700
C3188       C  0.90237857  0.07844445  0.28997882    -0.19400
C3189       C  0.94053540  0.10906788  0.28975984    -0.11700
C3190       C  0.96463997  0.11372278  0.28475101     0.20900
C3191       C  0.94873514  0.08824374  0.27981860    -0.21000
C3192       C  0.91033585  0.05746207  0.28003598    -0.11900
C3193       C  0.00588527  0.14558556  0.28452132    -0.16000
C3194       C  0.02627288  0.16173295  0.28961371    -0.29900
C3195       C  0.84694315  0.01849561  0.28589241    -0.04100
C3196       C  0.83365823  0.98486828  0.28288576    -0.40700
H3197       H  0.88488277  0.07528888  0.29395126     0.12100
H3198       H  0.95071489  0.12919701  0.29351827     0.11700
H3199       H  0.96622975  0.09182147  0.27582920     0.11200
H3200       H  0.89912174  0.03846878  0.27614586     0.11400
H3201       H  0.01945385  0.15626678  0.28010976     0.14100
H3202       H  0.01318432  0.15042229  0.29402294     0.12900
H3203       H  0.82852978  0.02086050  0.28932183     0.10600
H3204       H  0.85196007  0.98135545  0.27958575     0.12600
C3205       C  0.39795779  0.53375716  0.28849501     0.18700
C3206       C  0.43253357  0.53705954  0.28629362    -0.19400
C3207       C  0.46730494  0.57219962  0.28668884    -0.11700
C3208       C  0.46830900  0.60495682  0.28926450     0.20900
C3209       C  0.43362834  0.60185066  0.29146047    -0.21000
C3210       C  0.39872516  0.56650406  0.29108319    -0.11900
C3211       C  0.50544352  0.64227813  0.28903758    -0.16000
C3212       C  0.51452218  0.67349299  0.29254188    -0.29900
C3213       C  0.36156890  0.49609306  0.28782156    -0.04100
C3214       C  0.33208561  0.48341662  0.29180518    -0.40700
H3215       H  0.43263380  0.51232681  0.28425591     0.12100
H3216       H  0.49352960  0.57391470  0.28490458     0.11700
H3217       H  0.43305878  0.62681819  0.29327747     0.11200
H3218       H  0.37229029  0.56520959  0.29264952     0.11400
H3219       H  0.52659351  0.64393807  0.28573617     0.14100
H3220       H  0.49497906  0.67216125  0.29610129     0.12900
H3221       H  0.36002923  0.47721774  0.28413489     0.10600
H3222       H  0.33450413  0.50095650  0.29573759     0.12600
C3223       C  0.15131638  0.01783311  0.28851747     0.18700
C3224       C  0.17818181  0.04968004  0.29192197    -0.19400
C3225       C  0.18131543  0.08599460  0.29122218    -0.11700
C3226       C  0.15772700  0.09157362  0.28703130     0.20900
C3227       C  0.13010873  0.05948319  0.28372155    -0.21000
C3228       C  0.12688487  0.02294909  0.28443932    -0.11900
C3229       C  0.15980378  0.12982056  0.28626089    -0.16000
C3230       C  0.19052908  0.16346598  0.28805785    -0.29900
C3231       C  0.14970516  0.98004843  0.28949539    -0.04100
C3232       C  0.13341602  0.95007084  0.28560253    -0.40700
H3233       H  0.19692237  0.04647296  0.29516425     0.12100
H3234       H  0.20174383  0.10916322  0.29409922     0.11700
H3235       H  0.11093707  0.06268657  0.28057149     0.11200
H3236       H  0.10489790  0.99894011  0.28186220     0.11400
H3237       H  0.13485812  0.13014551  0.28430554     0.14100
H3238       H  0.21599665  0.16394494  0.28991658     0.12900
H3239       H  0.16448748  0.97760394  0.29348656     0.10600
H3240       H  0.11968014  0.95208373  0.28146631     0.12600
C3241       C  0.15525227  0.59046693  0.28839602     0.18700
C3242       C  0.17668428  0.58516240  0.29303751    -0.19400
C3243       C  0.17415893  0.54905343  0.29390677    -0.11700
C3244       C  0.15023102  0.51745258  0.29014647     0.20900
C3245       C  0.12889836  0.52288055  0.28554915    -0.21000
C3246       C  0.13140984  0.55882512  0.28468217    -0.11900
C3247       C  0.14784788  0.47894674  0.29053740    -0.16000
C3248       C  0.16710927  0.46897635  0.29454202    -0.29900
C3249       C  0.15631552  0.62792744  0.28722516    -0.04100
C3250       C  0.17490567  0.65967790  0.29073259    -0.40700
H3251       H  0.19579517  0.60856661  0.29599363     0.12100
H3252       H  0.19142948  0.54651299  0.29747369     0.11700
H3253       H  0.11040053  0.49923477  0.28255078     0.11200
H3254       H  0.11458354  0.56187998  0.28107027     0.11400
H3255       H  0.13036144  0.45802270  0.28707785     0.14100
H3256       H  0.18451868  0.48855410  0.29812667     0.12900
H3257       H  0.13969195  0.62891415  0.28337267     0.10600
H3258       H  0.19097730  0.65970340  0.29470604     0.12600
C3259       C  0.16702374  0.28783380  0.34088627     0.18700
C3260       C  0.19347129  0.32063497  0.33755667    -0.19400
C3261       C  0.18831045  0.32371935  0.33135330    -0.11700
C3262       C  0.15626421  0.29396085  0.32830251     0.20900
C3263       C  0.13059363  0.26036037  0.33156189    -0.21000
C3264       C  0.13573075  0.25726321  0.33779659    -0.11900
C3265       C  0.14983968  0.29607146  0.32168787    -0.16000
C3266       C  0.16645942  0.32931978  0.31842577    -0.29900
C3267       C  0.17211963  0.28891667  0.34759149    -0.04100
C3268       C  0.14639907  0.26286996  0.35155083    -0.40700
H3269       H  0.21801988  0.34450346  0.33979140     0.12100
H3270       H  0.20981989  0.34937340  0.32899549     0.11700
H3271       H  0.10613478  0.23661565  0.32929114     0.11200
H3272       H  0.11482486  0.23117985  0.34012836     0.11400
H3273       H  0.13128182  0.26880705  0.31938516     0.14100
H3274       H  0.18457315  0.35702928  0.32060756     0.12900
H3275       H  0.19663474  0.31508658  0.34939832     0.10600
H3276       H  0.12154741  0.23627357  0.34998754     0.12600
C3277       C  0.23522435  0.24848073  0.25671973     0.18700
C3278       C  0.20969548  0.22206058  0.25243431    -0.19400
C3279       C  0.22360011  0.21667969  0.24688997    -0.11700
C3280       C  0.26363156  0.23716114  0.24556193     0.20900
C3281       C  0.28918486  0.26328230  0.24987635    -0.21000
C3282       C  0.27526098  0.26872268  0.25541193    -0.11900
C3283       C  0.27953610  0.23315286  0.23965637    -0.16000
C3284       C  0.26101339  0.20154120  0.23613038    -0.29900
C3285       C  0.21935405  0.25400294  0.26252502    -0.04100
C3286       C  0.23691038  0.28762663  0.26560690    -0.40700
H3287       H  0.17877226  0.20612531  0.25332619     0.12100
H3288       H  0.20271054  0.19716641  0.24362378     0.11700
H3289       H  0.32009917  0.27937321  0.24897655     0.11200
H3290       H  0.29603198  0.28843504  0.25867641     0.11400
H3291       H  0.30755322  0.25684226  0.23820437     0.14100
H3292       H  0.23392428  0.17692950  0.23765669     0.12900
H3293       H  0.19191138  0.23034898  0.26417660     0.10600
H3294       H  0.26310204  0.31204913  0.26377497     0.12600
C3295       C  0.06796976  0.38795004  0.41065598     0.18700
C3296       C  0.03996520  0.36473403  0.41499951    -0.19400
C3297       C  0.03350216  0.38120342  0.42018098    -0.11700
C3298       C  0.05472976  0.42159602  0.42112958     0.20900
C3299       C  0.08261895  0.44486605  0.41678282    -0.21000
C3300       C  0.08895335  0.42843611  0.41158426    -0.11900
C3301       C  0.04985188  0.44017375  0.42670569    -0.16000
C3302       C  0.01704692  0.42430844  0.43005752    -0.29900
C3303       C  0.07377685  0.36883120  0.40521364    -0.04100
C3304       C  0.10520487  0.38608778  0.40156453    -0.40700
H3305       H  0.02331702  0.33355196  0.41442575     0.12100
H3306       H  0.01251547  0.36200101  0.42348919     0.11700
H3307       H  0.09941406  0.47601720  0.41738757     0.11200
H3308       H  0.10999670  0.44782250  0.40830624     0.11400
H3309       H  0.07411410  0.46796820  0.42807068     0.14100
H3310       H  0.99209975  0.39735779  0.42859826     0.12900
H3311       H  0.05157532  0.33913737  0.40424113     0.10600
H3312       H  0.12829404  0.41523930  0.40255650     0.12600
C3313       C  0.02208120  0.53857979  0.49330638     0.18700
C3314       C  0.05185300  0.53726056  0.49655871    -0.19400
C3315       C  0.04864884  0.53031827  0.50285370    -0.11700
C3316       C  0.01556033  0.52480601  0.50604892     0.20900
C3317       C  0.98638558  0.52727318  0.50282292    -0.21000
C3318       C  0.98968181  0.53442369  0.49655408    -0.11900
C3319       C  0.00943382  0.51501098  0.51266394    -0.16000
C3320       C  0.03821488  0.52404084  0.51669928    -0.29900
C3321       C  0.02492558  0.54245332  0.48653246    -0.04100
C3322       C  0.99341616  0.52818679  0.48291706    -0.40700
H3323       H  0.07715436  0.54037809  0.49418829     0.12100
H3324       H  0.07152169  0.52808021  0.50514657     0.11700
H3325       H  0.96076125  0.52353616  0.50516790     0.11200
H3326       H  0.96665996  0.53651217  0.49428587     0.11400
H3327       H  0.97981570  0.50175202  0.51435592     0.14100
H3328       H  0.06827290  0.54021405  0.51523438     0.12900
H3329       H  0.05325590  0.55303742  0.48444620     0.10600
H3330       H  0.96468640  0.51422439  0.48494041     0.12600
C3331       C  0.27214541  0.78395892  0.45252572     0.18700
C3332       C  0.26069071  0.75618892  0.44790157    -0.19400
C3333       C  0.22786695  0.71949361  0.44860987    -0.11700
C3334       C  0.20593597  0.70960768  0.45402739     0.20900
C3335       C  0.21772544  0.73742387  0.45866514    -0.21000
C3336       C  0.25043236  0.77410601  0.45794314    -0.11900
C3337       C  0.17076743  0.67104994  0.45510628    -0.16000
C3338       C  0.15588612  0.64156975  0.45109447    -0.29900
C3339       C  0.30826160  0.82182754  0.45172100    -0.04100
C3340       C  0.31548805  0.85420307  0.45473192    -0.40700
H3341       H  0.27723556  0.76293021  0.44371500     0.12100
H3342       H  0.22030840  0.69933904  0.44489377     0.11700
H3343       H  0.20171735  0.73065949  0.46290542     0.11200
H3344       H  0.25909406  0.79417488  0.46170539     0.11400
H3345       H  0.15610039  0.66692090  0.45944894     0.14100
H3346       H  0.16941347  0.64434513  0.44670892     0.12900
H3347       H  0.32985627  0.82282961  0.44857711     0.10600
H3348       H  0.29354984  0.85410507  0.45768240     0.12600
C3349       C  0.78339799  0.27219373  0.45728111     0.18700
C3350       C  0.77114829  0.23946122  0.45359488    -0.19400
C3351       C  0.73484956  0.20655270  0.45448012    -0.11700
C3352       C  0.70985825  0.20561283  0.45910808     0.20900
C3353       C  0.72177486  0.23858385  0.46272910    -0.21000
C3354       C  0.75814517  0.27155983  0.46184259    -0.11900
C3355       C  0.67022078  0.17189096  0.45995166    -0.16000
C3356       C  0.66052076  0.13597241  0.45813109    -0.29900
C3357       C  0.82186446  0.30684733  0.45603563    -0.04100
C3358       C  0.84140145  0.33471807  0.46016381    -0.40700
H3359       H  0.78965967  0.23943697  0.44997840     0.12100
H3360       H  0.72619205  0.18249284  0.45139677     0.11700
H3361       H  0.70273172  0.23893661  0.46622392     0.11200
H3362       H  0.76572486  0.29665761  0.46463826     0.11400
H3363       H  0.64817167  0.17708466  0.46193353     0.14100
H3364       H  0.68253768  0.13023478  0.45631072     0.12900
H3365       H  0.83484280  0.30907569  0.45159327     0.10600
H3366       H  0.82965081  0.33221887  0.46470176     0.12600
C3367       C  0.30212552  0.90235570  0.41228042     0.18700
C3368       C  0.33564988  0.93849891  0.41308178    -0.19400
C3369       C  0.35938380  0.94575964  0.41816944    -0.11700
C3370       C  0.34964710  0.91720588  0.42271173     0.20900
C3371       C  0.31602313  0.88090392  0.42189097    -0.21000
C3372       C  0.29249284  0.87348978  0.41674340    -0.11900
C3373       C  0.37336737  0.92416813  0.42835885    -0.16000
C3374       C  0.40047399  0.95977879  0.43025346    -0.29900
C3375       C  0.27829018  0.89610037  0.40672281    -0.04100
C3376       C  0.25791803  0.86140254  0.40399073    -0.40700
H3377       H  0.34393184  0.96112013  0.40968971     0.12100
H3378       H  0.38542409  0.97374503  0.41843209     0.11700
H3379       H  0.30765335  0.85828462  0.42528384     0.11200
H3380       H  0.26650274  0.84544491  0.41632994     0.11400
H3381       H  0.36677388  0.89931178  0.43122790     0.14100
H3382       H  0.40606633  0.98519624  0.42764469     0.12900
H3383       H  0.28078724  0.92161544  0.40446391     0.10600
H3384       H  0.25789780  0.83621045  0.40591530     0.12600
C3385       C  0.50198523  0.00787866  0.50630515     0.18700
C3386       C  0.53128290  0.04063072  0.50326664    -0.19400
C3387       C  0.53649547  0.04016896  0.49696460    -0.11700
C3388       C  0.51225089  0.00682054  0.49356848     0.20900
C3389       C  0.48266904  0.97437491  0.49659268    -0.21000
C3390       C  0.47728048  0.97492430  0.50285987    -0.11900
C3391       C  0.51645542  0.00395746  0.48690012    -0.16000
C3392       C  0.53278083  0.03436138  0.48301836    -0.29900
C3393       C  0.49878915  0.00899071  0.51305309    -0.04100
C3394       C  0.48106388  0.97696621  0.51659611    -0.40700
H3395       H  0.55072652  0.06644739  0.50579849     0.12100
H3396       H  0.55992584  0.06556022  0.49481203     0.11700
H3397       H  0.46330823  0.94843537  0.49407695     0.11200
H3398       H  0.45356029  0.94948303  0.50494090     0.11400
H3399       H  0.50202872  0.97479596  0.48503057     0.14100
H3400       H  0.54519575  0.06381542  0.48469603     0.12900
H3401       H  0.51448355  0.03722184  0.51522182     0.10600
H3402       H  0.46731021  0.94833961  0.51457407     0.12600
C3403       C  0.21832061  0.71829013  0.54398452     0.18700
C3404       C  0.24848755  0.72350376  0.54006344    -0.19400
C3405       C  0.28365586  0.75860686  0.53990516    -0.11700
C3406       C  0.28938027  0.78970912  0.54364029     0.20900
C3407       C  0.25903294  0.78457945  0.54752358    -0.21000
C3408       C  0.22387126  0.74940164  0.54769145    -0.11900
C3409       C  0.32676109  0.82725608  0.54386538    -0.16000
C3410       C  0.35621440  0.83867952  0.53983778    -0.29900
C3411       C  0.18127594  0.68054895  0.54383429    -0.04100
C3412       C  0.15343550  0.66751803  0.54817282    -0.40700
H3413       H  0.24497051  0.70009784  0.53713424     0.12100
H3414       H  0.30623054  0.76071408  0.53692309     0.11700
H3415       H  0.26251485  0.80798499  0.55044850     0.11200
H3416       H  0.20110954  0.74705683  0.55066035     0.11400
H3417       H  0.33020885  0.84644452  0.54761884     0.14100
H3418       H  0.35357092  0.82081523  0.53595457     0.12900
H3419       H  0.17711504  0.66216174  0.53993144     0.10600
H3420       H  0.15735030  0.68427025  0.55226073     0.12600
C3421       C  0.74291121  0.20119968  0.54484096     0.18700
C3422       C  0.75765491  0.22323994  0.53950706    -0.19400
C3423       C  0.78620220  0.26244600  0.53976496    -0.11700
C3424       C  0.80130607  0.28052280  0.54539599     0.20900
C3425       C  0.78675131  0.25835184  0.55073466    -0.21000
C3426       C  0.75806388  0.21912705  0.55047506    -0.11900
C3427       C  0.83168149  0.32230404  0.54591561    -0.16000
C3428       C  0.85490400  0.34343344  0.54127899    -0.29900
C3429       C  0.71118146  0.16007781  0.54431037    -0.04100
C3430       C  0.68486037  0.14138661  0.54872989    -0.40700
H3431       H  0.74637316  0.21027800  0.53511123     0.12100
H3432       H  0.79557194  0.27840802  0.53553517     0.11700
H3433       H  0.79781241  0.27138444  0.55513395     0.11200
H3434       H  0.74818760  0.20300431  0.55469086     0.11400
H3435       H  0.83612930  0.33571299  0.55036390     0.14100
H3436       H  0.85238330  0.33015330  0.53688003     0.12900
H3437       H  0.70695354  0.14613398  0.53991099     0.10600
H3438       H  0.68687396  0.15598556  0.55298914     0.12600
C3439       C  0.80302685  0.51971244  0.46201055     0.18700
C3440       C  0.80004925  0.55174662  0.46004937    -0.19400
C3441       C  0.76537678  0.55235147  0.46071239    -0.11700
C3442       C  0.73233312  0.52041799  0.46326686     0.20900
C3443       C  0.73571117  0.48894205  0.46543664    -0.21000
C3444       C  0.77056736  0.48843521  0.46480275    -0.11900
C3445       C  0.69380376  0.51842058  0.46358233    -0.16000
C3446       C  0.68402678  0.53933748  0.45989911    -0.29900
C3447       C  0.83945619  0.51915992  0.46063423    -0.04100
C3448       C  0.85053062  0.49594167  0.46340204    -0.40700
H3449       H  0.82463049  0.57636125  0.45792514     0.12100
H3450       H  0.76478852  0.57792224  0.45918879     0.11700
H3451       H  0.71088854  0.46404812  0.46745471     0.11200
H3452       H  0.77135017  0.46289933  0.46629538     0.11400
H3453       H  0.67184974  0.49691824  0.46658628     0.14100
H3454       H  0.70474876  0.55898246  0.45658154     0.12900
H3455       H  0.85816599  0.53911514  0.45713595     0.10600
H3456       H  0.83356760  0.47720639  0.46713024     0.12600
C3457       C  0.21779682  0.48666235  0.45142248     0.18700
C3458       C  0.22714371  0.45846009  0.45320951    -0.19400
C3459       C  0.26493057  0.46511460  0.45257634    -0.11700
C3460       C  0.29468827  0.50070562  0.45027706     0.20900
C3461       C  0.28517969  0.52850773  0.44828625    -0.21000
C3462       C  0.24713385  0.52170566  0.44887995    -0.11900
C3463       C  0.33581055  0.50961194  0.45013616    -0.16000
C3464       C  0.34953790  0.49557635  0.45444747    -0.29900
C3465       C  0.17779968  0.47926468  0.45260384    -0.04100
C3466       C  0.16074031  0.49496370  0.44926406    -0.40700
H3467       H  0.20509540  0.43115270  0.45513213     0.12100
H3468       H  0.27078594  0.44235552  0.45393941     0.11700
H3469       H  0.30749014  0.55606393  0.44647627     0.11200
H3470       H  0.24118497  0.54445218  0.44755377     0.11400
H3471       H  0.35530133  0.52937402  0.44669124     0.14100
H3472       H  0.33036798  0.47813620  0.45811193     0.12900
H3473       H  0.16159408  0.45950562  0.45629330     0.10600
H3474       H  0.17596761  0.51319240  0.44538193     0.12600
C3475       C  0.51280724  0.22758657  0.45867853     0.18700
C3476       C  0.53945229  0.25908244  0.46221714    -0.19400
C3477       C  0.53877281  0.29405948  0.46231368    -0.11700
C3478       C  0.51098871  0.29804075  0.45890810     0.20900
C3479       C  0.48384374  0.26618953  0.45549407    -0.21000
C3480       C  0.48451755  0.23138748  0.45540023    -0.11900
C3481       C  0.50999822  0.33497257  0.45845508    -0.16000
C3482       C  0.52869108  0.36619438  0.46213168    -0.29900
C3483       C  0.51458990  0.19096126  0.45863729    -0.04100
C3484       C  0.50013785  0.16468084  0.45409920    -0.40700
H3485       H  0.56133636  0.25684545  0.46483457     0.12100
H3486       H  0.56050491  0.31795095  0.46494365     0.11700
H3487       H  0.46191770  0.26823832  0.45285524     0.11200
H3488       H  0.46251320  0.20750232  0.45280029     0.11400
H3489       H  0.49222564  0.33623062  0.45480482     0.14100
H3490       H  0.54553794  0.36567343  0.46597020     0.12900
H3491       H  0.52910930  0.18594116  0.46242435     0.10600
H3492       H  0.48739354  0.17021820  0.45013192     0.12600
C3493       C  0.46257834  0.77678004  0.45485297     0.18700
C3494       C  0.47495513  0.76435411  0.44978805    -0.19400
C3495       C  0.48495529  0.73535694  0.45038251    -0.11700
C3496       C  0.48258312  0.71803986  0.45607469     0.20900
C3497       C  0.46959198  0.72993498  0.46111327    -0.21000
C3498       C  0.45915222  0.75853436  0.46050873    -0.11900
C3499       C  0.49406940  0.68808694  0.45695640    -0.16000
C3500       C  0.48988656  0.66251477  0.45261777    -0.29900
C3501       C  0.45542082  0.80997884  0.45412167    -0.04100
C3502       C  0.45846750  0.83313548  0.45878418    -0.40700
H3503       H  0.47793096  0.77788360  0.44538601     0.12100
H3504       H  0.49553860  0.72736855  0.44642143     0.11700
H3505       H  0.46720155  0.71678915  0.46553298     0.11200
H3506       H  0.44843607  0.76607798  0.46449499     0.11400
H3507       H  0.50376261  0.68533010  0.46145705     0.14100
H3508       H  0.47737765  0.66312615  0.44825801     0.12900
H3509       H  0.45179662  0.81807513  0.44954525     0.10600
H3510       H  0.46495988  0.82704087  0.46330709     0.12600
C3511       C  0.59774966  0.68259529  0.41206791     0.18700
C3512       C  0.60735965  0.65472827  0.41396636    -0.19400
C3513       C  0.59187713  0.63362471  0.41932407    -0.11700
C3514       C  0.56678286  0.64037157  0.42298276     0.20900
C3515       C  0.55672631  0.66787476  0.42106340    -0.21000
C3516       C  0.57222982  0.68903198  0.41568648    -0.11900
C3517       C  0.55084406  0.61918346  0.42880402    -0.16000
C3518       C  0.57042638  0.60652635  0.43219781    -0.29900
C3519       C  0.61527690  0.70428851  0.40632719    -0.04100
C3520       C  0.59993903  0.72183261  0.40301248    -0.40700
H3521       H  0.62667315  0.64894833  0.41125517     0.12100
H3522       H  0.59930963  0.61173673  0.42053502     0.11700
H3523       H  0.53744111  0.67356811  0.42379741     0.11200
H3524       H  0.56468297  0.71080234  0.41446909     0.11400
H3525       H  0.52352908  0.61567418  0.43046946     0.14100
H3526       H  0.59897674  0.61245149  0.43074168     0.12900
H3527       H  0.64051625  0.70367037  0.40456456     0.10600
H3528       H  0.57333560  0.72069299  0.40447896     0.12600
C3529       C  0.27306877  0.48663715  0.54258841     0.18700
C3530       C  0.26644821  0.50848739  0.53820147    -0.19400
C3531       C  0.23303295  0.51177906  0.53840495    -0.11700
C3532       C  0.20539253  0.49318160  0.54303585     0.20900
C3533       C  0.21203491  0.47139986  0.54742171    -0.21000
C3534       C  0.24533934  0.46806654  0.54721541    -0.11900
C3535       C  0.16873184  0.49440879  0.54346689    -0.16000
C3536       C  0.15905104  0.51653275  0.54003349    -0.29900
C3537       C  0.30880631  0.48361905  0.54204261    -0.04100
C3538       C  0.32064472  0.46638349  0.54614493    -0.40700
H3539       H  0.28717966  0.52297145  0.53456479     0.12100
H3540       H  0.22901139  0.52846011  0.53488662     0.11700
H3541       H  0.19115217  0.45658016  0.55102903     0.11200
H3542       H  0.24860410  0.45051759  0.55066066     0.11400
H3543       H  0.14842189  0.47581988  0.54693740     0.14100
H3544       H  0.17862760  0.53619893  0.53660737     0.12900
H3545       H  0.32653348  0.49668271  0.53801787     0.10600
H3546       H  0.30429714  0.45352037  0.55026978     0.12600
C3547       C  0.70071947  0.48993364  0.54536752     0.18700
C3548       C  0.71319881  0.47324333  0.54980407    -0.19400
C3549       C  0.75161019  0.48132290  0.54990082    -0.11700
C3550       C  0.77834543  0.50629149  0.54551812     0.20900
C3551       C  0.76616836  0.52410528  0.54123061    -0.21000
C3552       C  0.72782880  0.51617195  0.54115446    -0.11900
C3553       C  0.81904289  0.51462829  0.54523683    -0.16000
C3554       C  0.83107020  0.49193299  0.54785677    -0.29900
C3555       C  0.65963160  0.48030310  0.54541115    -0.04100
C3556       C  0.64182504  0.48464027  0.54052488    -0.40700
H3557       H  0.69307947  0.45366519  0.55318708     0.12100
H3558       H  0.76000269  0.46816847  0.55345383     0.11700
H3559       H  0.78633845  0.54402955  0.53788587     0.11200
H3560       H  0.71989206  0.53108825  0.53783537     0.11400
H3561       H  0.83937747  0.53923433  0.54249355     0.14100
H3562       H  0.81106757  0.46630810  0.55041186     0.12900
H3563       H  0.64336807  0.46879669  0.54961088     0.10600
H3564       H  0.65709550  0.49494654  0.53623397     0.12600
C3565       C  0.48759394  0.75877948  0.53883397     0.18700
C3566       C  0.45668507  0.72378551  0.53669895    -0.19400
C3567       C  0.45728681  0.68898868  0.53737899    -0.11700
C3568       C  0.48929881  0.68878726  0.54012174     0.20900
C3569       C  0.52066755  0.72411033  0.54204774    -0.21000
C3570       C  0.52001795  0.75867671  0.54137473    -0.11900
C3571       C  0.49087749  0.65265264  0.54129325    -0.16000
C3572       C  0.46816074  0.61868528  0.53849131    -0.29900
C3573       C  0.48557655  0.79511521  0.53855140    -0.04100
C3574       C  0.50062272  0.82125346  0.54305594    -0.40700
H3575       H  0.43148905  0.72317247  0.53469864     0.12100
H3576       H  0.43214414  0.66243166  0.53591563     0.11700
H3577       H  0.54580713  0.72498045  0.54412054     0.11200
H3578       H  0.54497479  0.78537023  0.54287533     0.11400
H3579       H  0.51239061  0.65441335  0.54452263     0.14100
H3580       H  0.44769411  0.61657663  0.53504814     0.12900
H3581       H  0.47085819  0.79982302  0.53476231     0.10600
H3582       H  0.51280296  0.81465024  0.54700010     0.12600
C3583       C  0.53157785  0.20878681  0.54306858     0.18700
C3584       C  0.51644681  0.22135051  0.53838840    -0.19400
C3585       C  0.51359347  0.25472075  0.53906786    -0.11700
C3586       C  0.52578124  0.27635814  0.54447325     0.20900
C3587       C  0.54272100  0.26511121  0.54903814    -0.21000
C3588       C  0.54550864  0.23158844  0.54837201    -0.11900
C3589       C  0.52110339  0.31072788  0.54539824    -0.16000
C3590       C  0.49032748  0.31188970  0.54314322    -0.29900
C3591       C  0.53152249  0.17160293  0.54220290    -0.04100
C3592       C  0.53938998  0.15316876  0.54663157    -0.40700
H3593       H  0.50619691  0.20493723  0.53421177     0.12100
H3594       H  0.50184737  0.26353774  0.53534794     0.11700
H3595       H  0.55298887  0.28180323  0.55318883     0.11200
H3596       H  0.55851607  0.22400336  0.55204338     0.11400
H3597       H  0.54275548  0.33490930  0.54803803     0.14100
H3598       H  0.46800066  0.28682691  0.54074285     0.12900
H3599       H  0.52311765  0.15801113  0.53775865     0.10600
H3600       H  0.54745236  0.16552304  0.55113727     0.12600
C3601       C  0.48970402  0.48882435  0.49393415     0.18700
C3602       C  0.50913324  0.52562901  0.49663443    -0.19400
C3603       C  0.49898787  0.53135470  0.50246172    -0.11700
C3604       C  0.46959989  0.50006824  0.50574280     0.20900
C3605       C  0.44962189  0.46347149  0.50299261    -0.21000
C3606       C  0.45970709  0.45776219  0.49715899    -0.11900
C3607       C  0.46180170  0.50344920  0.51223178    -0.16000
C3608       C  0.49065444  0.52609129  0.51602888    -0.29900
C3609       C  0.50066347  0.48434571  0.48767816    -0.04100
C3610       C  0.47480585  0.45926137  0.48368737    -0.40700
H3611       H  0.53200534  0.55011325  0.49420318     0.12100
H3612       H  0.51440841  0.56013985  0.50440443     0.11700
H3613       H  0.42715822  0.43886469  0.50545834     0.11200
H3614       H  0.44456873  0.42888266  0.49525105     0.11400
H3615       H  0.43425293  0.48138922  0.51413541     0.14100
H3616       H  0.51956285  0.54515547  0.51424226     0.12900
H3617       H  0.52914487  0.50618753  0.48603587     0.10600
H3618       H  0.44494065  0.44018161  0.48507242     0.12600
C3619       C  0.04005362  0.62104051  0.92242684     0.18700
C3620       C  0.02435595  0.64399750  0.92047359    -0.19400
C3621       C  0.03887814  0.66764623  0.91528720    -0.11700
C3622       C  0.06928660  0.66850561  0.91184606     0.20900
C3623       C  0.08470758  0.64527138  0.91378553    -0.21000
C3624       C  0.07024963  0.62172626  0.91897161    -0.11900
C3625       C  0.08625823  0.69340362  0.90629743    -0.16000
C3626       C  0.06923250  0.71040859  0.90324392    -0.29900
C3627       C  0.02382681  0.59628274  0.92799240    -0.04100
C3628       C  0.04405713  0.58410113  0.93136934    -0.40700
H3629       H  0.00106154  0.64406111  0.92302353     0.12100
H3630       H  0.02644129  0.68550177  0.91409169     0.11700
H3631       H  0.10794407  0.64506269  0.91124100     0.11200
H3632       H  0.08247014  0.60366210  0.92017571     0.11400
H3633       H  0.11343070  0.69693447  0.90455628     0.14100
H3634       H  0.04129172  0.70592351  0.90472627     0.12900
H3635       H  0.99493124  0.58914558  0.92947888     0.10600
H3636       H  0.07382884  0.59317217  0.93014667     0.12600
C3637       C  0.15546775  0.81984150  0.82871683     0.18700
C3638       C  0.15352946  0.85001394  0.83169019    -0.19400
C3639       C  0.16009314  0.85559650  0.83794406    -0.11700
C3640       C  0.16806640  0.83052513  0.84139694     0.20900
C3641       C  0.17014698  0.80041451  0.83841495    -0.21000
C3642       C  0.16379052  0.79497205  0.83214695    -0.11900
C3643       C  0.17360024  0.83420275  0.84810281    -0.16000
C3644       C  0.15936227  0.85170075  0.85166401    -0.29900
C3645       C  0.14875235  0.81551395  0.82204855    -0.04100
C3646       C  0.16450727  0.80008694  0.81835687    -0.40700
H3647       H  0.14744505  0.86974242  0.82914343     0.12100
H3648       H  0.15927364  0.87981757  0.84001021     0.11700
H3649       H  0.17607163  0.78058560  0.84096445     0.11200
H3650       H  0.16474543  0.77091148  0.83003826     0.11400
H3651       H  0.18668344  0.81880138  0.85023805     0.14100
H3652       H  0.14363674  0.86478245  0.84967368     0.12900
H3653       H  0.13337809  0.82898860  0.82003143     0.10600
H3654       H  0.18288169  0.78960059  0.82021821     0.12600
C3655       C  0.40337435  0.86251322  0.78748924     0.18700
C3656       C  0.43632907  0.88966445  0.78429186    -0.19400
C3657       C  0.47139357  0.88978195  0.78485448    -0.11700
C3658       C  0.47426309  0.86263889  0.78860439     0.20900
C3659       C  0.44111049  0.83501005  0.79175341    -0.21000
C3660       C  0.40602427  0.83490194  0.79119023    -0.11900
C3661       C  0.51136932  0.86221882  0.78864458    -0.16000
C3662       C  0.52162897  0.84396655  0.79281829    -0.29900
C3663       C  0.36640594  0.86291088  0.78675529    -0.04100
C3664       C  0.33975122  0.85076982  0.79120515    -0.40700
H3665       H  0.43496915  0.91092457  0.78136620     0.12100
H3666       H  0.49635851  0.91101715  0.78230245     0.11700
H3667       H  0.44167444  0.81266710  0.79449288     0.11200
H3668       H  0.38081511  0.81244593  0.79352827     0.11400
H3669       H  0.53110737  0.87745619  0.78490393     0.14100
H3670       H  0.50340489  0.82980093  0.79674190     0.12900
H3671       H  0.36155998  0.87436515  0.78255928     0.10600
H3672       H  0.34569202  0.84141146  0.79551839     0.12600
C3673       C  0.95314986  0.81825090  0.78620062     0.18700
C3674       C  0.94299302  0.84117801  0.78266774    -0.19400
C3675       C  0.90572760  0.83626299  0.78304564    -0.11700
C3676       C  0.87754209  0.80754496  0.78688031     0.20900
C3677       C  0.88748857  0.78391411  0.79028145    -0.21000
C3678       C  0.92481031  0.78899676  0.78992610    -0.11900
C3679       C  0.83836646  0.80283493  0.78771790    -0.16000
C3680       C  0.82202393  0.81562527  0.78366209    -0.29900
C3681       C  0.99354943  0.82571687  0.78596740    -0.04100
C3682       C  0.01068963  0.82030152  0.79084035    -0.40700
H3683       H  0.96434267  0.86382288  0.77975997     0.12100
H3684       H  0.89977248  0.85591186  0.78047436     0.11700
H3685       H  0.86634746  0.76155493  0.79325061     0.11200
H3686       H  0.93134193  0.76994616  0.79256376     0.11400
H3687       H  0.82260319  0.78857721  0.79185000     0.14100
H3688       H  0.83661363  0.82856998  0.77940638     0.12900
H3689       H  0.00999883  0.83751482  0.78179301     0.10600
H3690       H  0.99486214  0.81038455  0.79510247     0.12600
C3691       C  0.59692720  0.93918385  0.92393150     0.18700
C3692       C  0.61835046  0.96528478  0.91928238    -0.19400
C3693       C  0.62225982  0.95158206  0.91362519    -0.11700
C3694       C  0.60539207  0.91138245  0.91256749     0.20900
C3695       C  0.58505781  0.88543256  0.91729660    -0.21000
C3696       C  0.58115446  0.89912684  0.92293706    -0.11900
C3697       C  0.60757364  0.89550091  0.90656695    -0.16000
C3698       C  0.63662486  0.91568577  0.90263293    -0.29900
C3699       C  0.58946796  0.95388313  0.92967234    -0.04100
C3700       C  0.55491161  0.93401199  0.93244523    -0.40700
H3701       H  0.63072016  0.99621756  0.91994836     0.12100
H3702       H  0.63738588  0.97256322  0.91005545     0.11700
H3703       H  0.57208785  0.85443784  0.91662125     0.11200
H3704       H  0.56546419  0.87826500  0.92650424     0.11400
H3705       H  0.58564133  0.86590141  0.90547349     0.14100
H3706       H  0.66002906  0.94425180  0.90387052     0.12900
H3707       H  0.61135780  0.98187655  0.93141890     0.10600
H3708       H  0.53251678  0.90735001  0.93039502     0.12600
C3709       C  0.44054911  0.86175927  0.87860941     0.18700
C3710       C  0.41214693  0.83212639  0.88231408    -0.19400
C3711       C  0.37379935  0.82496070  0.88237399    -0.11700
C3712       C  0.36304684  0.84718415  0.87871833     0.20900
C3713       C  0.39146449  0.87665680  0.87505756    -0.21000
C3714       C  0.42959643  0.88381360  0.87500233    -0.11900
C3715       C  0.32247945  0.83964489  0.87824663    -0.16000
C3716       C  0.29351929  0.81871778  0.88223156    -0.29900
C3717       C  0.48113370  0.86925418  0.87803935    -0.04100
C3718       C  0.49820779  0.85710680  0.88208350    -0.40700
H3719       H  0.41888814  0.81353521  0.88502379     0.12100
H3720       H  0.35261181  0.80130094  0.88513510     0.11700
H3721       H  0.38405191  0.89409343  0.87216247     0.11200
H3722       H  0.45061339  0.90654627  0.87207014     0.11400
H3723       H  0.31640801  0.85289384  0.87438331     0.14100
H3724       H  0.29880507  0.80629874  0.88626599     0.12900
H3725       H  0.49759395  0.88534520  0.87406105     0.10600
H3726       H  0.48273628  0.84172514  0.88615789     0.12600
C3727       C  0.91633432  0.81084226  0.87898747     0.18700
C3728       C  0.87984189  0.78087558  0.88082470    -0.19400
C3729       C  0.84633739  0.78264290  0.87954758    -0.11700
C3730       C  0.84836567  0.81457135  0.87643742     0.20900
C3731       C  0.88495038  0.84489196  0.87462141    -0.21000
C3732       C  0.91859156  0.84307810  0.87589377    -0.11900
C3733       C  0.81193920  0.81621710  0.87578404    -0.16000
C3734       C  0.80695028  0.84198575  0.87240825    -0.29900
C3735       C  0.95121136  0.80740440  0.88037946    -0.04100
C3736       C  0.98328619  0.82426305  0.87690543    -0.40700
H3737       H  0.87719573  0.75584967  0.88323324     0.12100
H3738       H  0.81863072  0.75904711  0.88107772     0.11700
H3739       H  0.88793897  0.87050722  0.87238726     0.11200
H3740       H  0.94630930  0.86742987  0.87457722     0.11400
H3741       H  0.78769919  0.79518739  0.87851672     0.14100
H3742       H  0.82959519  0.86232737  0.86938872     0.12900
H3743       H  0.94936091  0.78825915  0.88406328     0.10600
H3744       H  0.98421251  0.84132718  0.87298052     0.12600
C3745       C  0.65916548  0.84973587  0.82611032     0.18700
C3746       C  0.65192421  0.81683936  0.82951885    -0.19400
C3747       C  0.65991744  0.81957397  0.83575678    -0.11700
C3748       C  0.67489220  0.85536709  0.83878367     0.20900
C3749       C  0.68250691  0.88836765  0.83536629    -0.21000
C3750       C  0.67457841  0.88564348  0.82911260    -0.11900
C3751       C  0.68237563  0.85923382  0.84547998    -0.16000
C3752       C  0.66263974  0.82974869  0.84941957    -0.29900
C3753       C  0.65039770  0.84512413  0.81946133    -0.04100
C3754       C  0.66822305  0.87394633  0.81533971    -0.40700
H3755       H  0.64042470  0.78887403  0.82732658     0.12100
H3756       H  0.65468445  0.79362429  0.83816090     0.11700
H3757       H  0.69397177  0.91628897  0.83756908     0.11200
H3758       H  0.67994990  0.91156880  0.82668752     0.11400
H3759       H  0.70214892  0.88791143  0.84726522     0.14100
H3760       H  0.64040191  0.80182331  0.84772165     0.12900
H3761       H  0.63126336  0.81586230  0.81782305     0.10600
H3762       H  0.68994053  0.90272580  0.81681401     0.12600
C3763       C  0.14049730  0.10793955  0.78659524     0.18700
C3764       C  0.12648588  0.07828333  0.78224744    -0.19400
C3765       C  0.13396189  0.04747354  0.78278465    -0.11700
C3766       C  0.15594642  0.04584220  0.78769656     0.20900
C3767       C  0.17038878  0.07587167  0.79198235    -0.21000
C3768       C  0.16293324  0.10654571  0.79144317    -0.11900
C3769       C  0.16539017  0.01421807  0.78852146    -0.16000
C3770       C  0.14887531  0.98081737  0.78536769    -0.29900
C3771       C  0.13382706  0.14138483  0.78576776    -0.04100
C3772       C  0.13415393  0.16299518  0.79048214    -0.40700
H3773       H  0.10980196  0.07903170  0.77840859     0.12100
H3774       H  0.12294212  0.02564680  0.77927528     0.11700
H3775       H  0.18785099  0.07580424  0.79575981     0.11200
H3776       H  0.17582582  0.12962131  0.79475312     0.11400
H3777       H  0.18635576  0.01831229  0.79202837     0.14100
H3778       H  0.12718045  0.97526100  0.78193861     0.12900
H3779       H  0.13028788  0.14931600  0.78117640     0.10600
H3780       H  0.13664049  0.15444612  0.79507795     0.12600
C3781       C  0.17365737  0.62074750  0.79346178     0.18700
C3782       C  0.14706148  0.58821809  0.79012416    -0.19400
C3783       C  0.15044712  0.55501823  0.78981763    -0.11700
C3784       C  0.18085108  0.55350630  0.79281896     0.20900
C3785       C  0.20697516  0.58553864  0.79630054    -0.21000
C3786       C  0.20366634  0.61902938  0.79659483    -0.11900
C3787       C  0.18495239  0.51836413  0.79254826    -0.16000
C3788       C  0.17232141  0.49381705  0.78778930    -0.29900
C3789       C  0.16929562  0.65580631  0.79323402    -0.04100
C3790       C  0.19057601  0.68908951  0.79634846    -0.40700
H3791       H  0.12347300  0.58848523  0.78769951     0.12100
H3792       H  0.12880554  0.53043486  0.78728721     0.11700
H3793       H  0.23038167  0.58487259  0.79871574     0.11200
H3794       H  0.22492490  0.64338446  0.79919742     0.11400
H3795       H  0.19908959  0.51283904  0.79633763     0.14100
H3796       H  0.16024567  0.50036110  0.78383385     0.12900
H3797       H  0.14728167  0.65417636  0.79012563     0.10600
H3798       H  0.21232903  0.69194003  0.79959708     0.12600
C3799       C  0.45616648  0.60769942  0.79124757     0.18700
C3800       C  0.45212042  0.57122109  0.79012939    -0.19400
C3801       C  0.41669903  0.53740974  0.79114349    -0.11700
C3802       C  0.38397787  0.53941092  0.79311506     0.20900
C3803       C  0.38839158  0.57602690  0.79437751    -0.21000
C3804       C  0.42409623  0.60987684  0.79345489    -0.11900
C3805       C  0.34463513  0.50437893  0.79365678    -0.16000
C3806       C  0.33476147  0.47072136  0.79082504    -0.29900
C3807       C  0.49374471  0.64285962  0.78984492    -0.04100
C3808       C  0.50783743  0.67548779  0.79314266    -0.40700
H3809       H  0.47656984  0.56887776  0.78848605     0.12100
H3810       H  0.41538199  0.50998616  0.79034543     0.11700
H3811       H  0.36384753  0.57853332  0.79591878     0.11200
H3812       H  0.42617141  0.63768686  0.79427535     0.11400
H3813       H  0.32226356  0.50740545  0.79601753     0.14100
H3814       H  0.35605540  0.46778516  0.78815501     0.12900
H3815       H  0.51109635  0.64112336  0.78616756     0.10600
H3816       H  0.49178456  0.67641199  0.79707770     0.12600
C3817       C  0.87649957  0.04289039  0.78591430     0.18700
C3818       C  0.87795416  0.07697229  0.78794798    -0.19400
C3819       C  0.91132773  0.11301297  0.78713072    -0.11700
C3820       C  0.94453381  0.11574091  0.78434383     0.20900
C3821       C  0.94276955  0.08160219  0.78221244    -0.21000
C3822       C  0.90920665  0.04552162  0.78299444    -0.11900
C3823       C  0.98185250  0.15304227  0.78372941    -0.16000
C3824       C  0.98971603  0.18599194  0.78662465    -0.29900
C3825       C  0.84081947  0.00533994  0.78714109    -0.04100
C3826       C  0.82995516  0.97275361  0.78392753    -0.40700
H3827       H  0.85305495  0.07572438  0.79018409     0.12100
H3828       H  0.91056533  0.13829529  0.78871377     0.11700
H3829       H  0.96780302  0.08272401  0.78004985     0.11200
H3830       H  0.90950750  0.01984081  0.78146647     0.11400
H3831       H  0.00474081  0.15264680  0.78107967     0.14100
H3832       H  0.96812307  0.18711442  0.78948307     0.12900
H3833       H  0.82167126  0.00513410  0.79069138     0.10600
H3834       H  0.84731955  0.97275513  0.78011941     0.12600
C3835       C  0.30189859  0.39048102  0.91203796     0.18700
C3836       C  0.33176954  0.38265467  0.91342473    -0.19400
C3837       C  0.35235216  0.39529205  0.91888076    -0.11700
C3838       C  0.34308299  0.41554186  0.92320117     0.20900
C3839       C  0.31343801  0.42380915  0.92179280    -0.21000
C3840       C  0.29295928  0.41136432  0.91628628    -0.11900
C3841       C  0.36413100  0.42873572  0.92913638    -0.16000
C3842       C  0.38278229  0.41174490  0.93169705    -0.29900
C3843       C  0.28038835  0.37531298  0.90620206    -0.04100
C3844       C  0.26105014  0.39044001  0.90330048    -0.40700
H3845       H  0.33953262  0.36692223  0.91023247     0.12100
H3846       H  0.37585422  0.38948320  0.91962388     0.11700
H3847       H  0.30569867  0.43945793  0.92500414     0.11200
H3848       H  0.26970187  0.41743671  0.91544595     0.11400
H3849       H  0.36303781  0.45197507  0.93155403     0.14100
H3850       H  0.38169742  0.38680147  0.92951365     0.12900
H3851       H  0.28242876  0.35187625  0.90402438     0.10600
H3852       H  0.26095682  0.41565157  0.90515784     0.12600
C3853       C  0.20178769  0.33327741  0.82603143     0.18700
C3854       C  0.18213966  0.29837534  0.82933198    -0.19400
C3855       C  0.17622435  0.29845602  0.83560852    -0.11700
C3856       C  0.19024113  0.33370519  0.83876375     0.20900
C3857       C  0.21057612  0.36859171  0.83547723    -0.21000
C3858       C  0.21649987  0.36850761  0.82920603    -0.11900
C3859       C  0.18413660  0.33591274  0.84541844    -0.16000
C3860       C  0.17112260  0.30582099  0.84934872    -0.29900
C3861       C  0.20469126  0.33120801  0.81929410    -0.04100
C3862       C  0.21285571  0.36082606  0.81544211    -0.40700
H3863       H  0.17045354  0.27077583  0.82701690     0.12100
H3864       H  0.16000996  0.27080306  0.83789307     0.11700
H3865       H  0.22196890  0.39620647  0.83777703     0.11200
H3866       H  0.23262956  0.39615266  0.82691389     0.11400
H3867       H  0.19225184  0.36440943  0.84721321     0.14100
H3868       H  0.16438218  0.27729720  0.84779505     0.12900
H3869       H  0.19615714  0.30285812  0.81739345     0.10600
H3870       H  0.21997083  0.38910938  0.81716817     0.12600
C3871       C  0.88551585  0.06155276  0.87155259     0.18700
C3872       C  0.91916790  0.06482166  0.86886518    -0.19400
C3873       C  0.95543773  0.09884761  0.86952519    -0.11700
C3874       C  0.95874743  0.13072073  0.87283389     0.20900
C3875       C  0.92476832  0.12775673  0.87531578    -0.21000
C3876       C  0.88874876  0.09394840  0.87465828    -0.11900
C3877       C  0.99651078  0.16716462  0.87403240    -0.16000
C3878       C  0.03097189  0.17765359  0.87132303    -0.29900
C3879       C  0.84763437  0.02411267  0.87117070    -0.04100
C3880       C  0.82049920  0.01266457  0.87559996    -0.40700
H3881       H  0.91759473  0.04054317  0.86639577     0.12100
H3882       H  0.98068546  0.09954748  0.86755375     0.11700
H3883       H  0.92606641  0.15178700  0.87782560     0.11200
H3884       H  0.86346159  0.09340038  0.87659664     0.11400
H3885       H  0.99558747  0.18690336  0.87734971     0.14100
H3886       H  0.03299735  0.15919912  0.86789452     0.12900
H3887       H  0.84302774  0.00473737  0.86739232     0.10600
H3888       H  0.82651160  0.03106148  0.87955600     0.12600
C3889       C  0.44493968  0.64548265  0.88365059     0.18700
C3890       C  0.44381885  0.61285474  0.88632353    -0.19400
C3891       C  0.41056439  0.57616066  0.88584846    -0.11700
C3892       C  0.37736602  0.57158403  0.88281806     0.20900
C3893       C  0.37807970  0.60450769  0.88032684    -0.21000
C3894       C  0.41168657  0.64102542  0.88066350    -0.11900
C3895       C  0.34144013  0.53301935  0.88232512    -0.16000
C3896       C  0.34236443  0.49996324  0.88145093    -0.29900
C3897       C  0.48119366  0.68376716  0.88393908    -0.04100
C3898       C  0.49526480  0.70643376  0.87897992    -0.40700
H3899       H  0.46903187  0.61564974  0.88867134     0.12100
H3900       H  0.41064823  0.55149625  0.88793108     0.11700
H3901       H  0.35278035  0.60182968  0.87802356     0.11200
H3902       H  0.41160750  0.66585066  0.87863727     0.11400
H3903       H  0.31367416  0.53213987  0.88226412     0.14100
H3904       H  0.37017661  0.50130109  0.88091764     0.12900
H3905       H  0.49842931  0.69156924  0.88806956     0.10600
H3906       H  0.47979754  0.69631431  0.87470010     0.12600
C3907       C  0.17039615  0.11218075  0.87658440     0.18700
C3908       C  0.14928599  0.08402637  0.87216120    -0.19400
C3909       C  0.14720013  0.04784381  0.87227233    -0.11700
C3910       C  0.16647712  0.03901408  0.87682647     0.20900
C3911       C  0.18806795  0.06743813  0.88119693    -0.21000
C3912       C  0.19010252  0.10357747  0.88108796    -0.11900
C3913       C  0.16457619  0.00071208  0.87734082    -0.16000
C3914       C  0.14379309  0.96976713  0.87370798    -0.29900
C3915       C  0.17204382  0.15036285  0.87616973    -0.04100
C3916       C  0.18323753  0.17644539  0.88072476    -0.40700
H3917       H  0.13410340  0.08998116  0.86860455     0.12100
H3918       H  0.13038829  0.02721524  0.86878419     0.11700
H3919       H  0.20346832  0.06165695  0.88473925     0.11200
H3920       H  0.20761746  0.12466124  0.88448550     0.11400
H3921       H  0.18060847  0.99759211  0.88109415     0.14100
H3922       H  0.12744148  0.97140010  0.86989445     0.12900
H3923       H  0.16274560  0.15690155  0.87189764     0.10600
H3924       H  0.19131793  0.17025569  0.88511895     0.12600
C3925       C  0.16254335  0.53652911  0.87889407     0.18700
C3926       C  0.15399560  0.54960757  0.88428079    -0.19400
C3927       C  0.14288744  0.57785750  0.88412002    -0.11700
C3928       C  0.14063721  0.59406239  0.87854840     0.20900
C3929       C  0.14893837  0.58089404  0.87315244    -0.21000
C3930       C  0.16016028  0.55270542  0.87331222    -0.11900
C3931       C  0.13038795  0.62512321  0.87820923    -0.16000
C3932       C  0.13925328  0.65138699  0.88265435    -0.29900
C3933       C  0.17384129  0.50612960  0.87930473    -0.04100
C3934       C  0.16927553  0.48205926  0.87469451    -0.40700
H3935       H  0.15547054  0.53756700  0.88863245     0.12100
H3936       H  0.13571518  0.58660603  0.88835682     0.11700
H3937       H  0.14757948  0.59309696  0.86880818     0.11200
H3938       H  0.16756206  0.54431068  0.86906668     0.11400
H3939       H  0.11837131  0.62852648  0.87396430     0.14100
H3940       H  0.15404597  0.65005732  0.88671864     0.12900
H3941       H  0.18413230  0.50197644  0.88366678     0.10600
H3942       H  0.15706811  0.48444476  0.87041306     0.12600
C3943       C  0.24874690  0.95410110  0.75611846     0.18700
C3944       C  0.28725231  0.98321564  0.75506761    -0.19400
C3945       C  0.29717295  0.00716747  0.74993476    -0.11700
C3946       C  0.26874196  0.00211715  0.74564225     0.20900
C3947       C  0.23018249  0.97288476  0.74669070    -0.21000
C3948       C  0.22023195  0.94901875  0.75184741    -0.11900
C3949       C  0.27786191  0.02635768  0.74002662    -0.16000
C3950       C  0.31396621  0.04829825  0.73775519    -0.29900
C3951       C  0.23984127  0.93000219  0.76172438    -0.04100
C3952       C  0.20453421  0.91136319  0.76435440    -0.40700
H3953       H  0.30976774  0.98788292  0.75829153     0.12100
H3954       H  0.32705749  0.02978879  0.74943807     0.11700
H3955       H  0.20766103  0.96818090  0.74346621     0.11200
H3956       H  0.19035922  0.92636562  0.75240066     0.11400
H3957       H  0.25351128  0.02423883  0.73746278     0.14100
H3958       H  0.33863261  0.04928461  0.74002069     0.12900
H3959       H  0.26406844  0.93009170  0.76402987     0.10600
H3960       H  0.18042271  0.91289184  0.76234229     0.12600
C3961       C  0.34894356  0.15376996  0.66026693     0.18700
C3962       C  0.38277208  0.17304166  0.66380453    -0.19400
C3963       C  0.38086507  0.17403351  0.67016936    -0.11700
C3964       C  0.34478909  0.15558426  0.67321105     0.20900
C3965       C  0.31099095  0.13621437  0.66967347    -0.21000
C3966       C  0.31289571  0.13521188  0.66331306    -0.11900
C3967       C  0.34061072  0.15499636  0.68000548    -0.16000
C3968       C  0.37040747  0.16973244  0.68398754    -0.29900
C3969       C  0.35296687  0.15432639  0.65346944    -0.04100
C3970       C  0.32301510  0.13958395  0.64951181    -0.40700
H3971       H  0.41100145  0.18765066  0.66162795     0.12100
H3972       H  0.40787135  0.18946671  0.67261750     0.11700
H3973       H  0.28275662  0.12154066  0.67184764     0.11200
H3974       H  0.28587356  0.11966960  0.66087373     0.11400
H3975       H  0.31127447  0.13999006  0.68183172     0.14100
H3976       H  0.40007152  0.18358495  0.68236889     0.12900
H3977       H  0.38225882  0.16893774  0.65162586     0.10600
H3978       H  0.29341806  0.12596390  0.65115349     0.12600
C3979       C  0.41336424  0.29127841  0.58673909     0.18700
C3980       C  0.44890419  0.32408435  0.58520848    -0.19400
C3981       C  0.45240435  0.34560507  0.57994722    -0.11700
C3982       C  0.42035317  0.33452430  0.57607118     0.20900
C3983       C  0.38500991  0.30157716  0.57756916    -0.21000
C3984       C  0.38161942  0.27987168  0.58277643    -0.11900
C3985       C  0.42260127  0.35666544  0.57046599    -0.16000
C3986       C  0.45548200  0.37640679  0.56723259    -0.29900
C3987       C  0.40996835  0.27006903  0.59253092    -0.04100
C3988       C  0.37575632  0.24923898  0.59540183    -0.40700
H3989       H  0.47382088  0.33356786  0.58815772     0.12100
H3990       H  0.47996882  0.37133585  0.57901223     0.11700
H3991       H  0.36000375  0.29222514  0.57464371     0.11200
H3992       H  0.35406929  0.25397464  0.58361732     0.11400
H3993       H  0.39600245  0.35460471  0.56875085     0.14100
H3994       H  0.48142983  0.37611101  0.56868852     0.12900
H3995       H  0.43624679  0.27383398  0.59467471     0.10600
H3996       H  0.34997462  0.24794026  0.59349850     0.12600
C3997       C  0.54280794  0.35851067  0.71024501     0.18700
C3998       C  0.54931509  0.38484257  0.71497156    -0.19400
C3999       C  0.58222240  0.42187111  0.71501226    -0.11700
C4000       C  0.60979114  0.43366809  0.71030009     0.20900
C4001       C  0.60313734  0.40743684  0.70554096    -0.21000
C4002       C  0.57015431  0.37032175  0.70550117    -0.11900
C4003       C  0.64565982  0.47274072  0.71009317    -0.16000
C4004       C  0.65838164  0.49936927  0.71461150    -0.29900
C4005       C  0.50696297  0.31958147  0.71053068    -0.04100
C4006       C  0.49711443  0.28961932  0.70666463    -0.40700
H4007       H  0.52872446  0.37674039  0.71868119     0.12100
H4008       H  0.58548435  0.44092808  0.71873259     0.11700
H4009       H  0.62368547  0.41565911  0.70182422     0.11200
H4010       H  0.56636052  0.35133979  0.70173833     0.11400
H4011       H  0.66311515  0.47953375  0.70598627     0.14100
H4012       H  0.64225486  0.49362944  0.71882232     0.12900
H4013       H  0.48760580  0.31521253  0.71431824     0.10600
H4014       H  0.51580126  0.29215461  0.70289360     0.12600
C4015       C  0.04625058  0.85722584  0.71406145     0.18700
C4016       C  0.06921251  0.87145348  0.71929854    -0.19400
C4017       C  0.10882062  0.89870895  0.71885251    -0.11700
C4018       C  0.12628130  0.91280196  0.71313031     0.20900
C4019       C  0.10329062  0.89874999  0.70790114    -0.21000
C4020       C  0.06372492  0.87163078  0.70834680    -0.11900
C4021       C  0.16797827  0.94265349  0.71241203    -0.16000
C4022       C  0.18821709  0.96862910  0.71675840    -0.29900
C4023       C  0.00450652  0.82708249  0.71472145    -0.04100
C4024       C  0.98451703  0.80202852  0.71024618    -0.40700
H4025       H  0.05660138  0.86090706  0.72375196     0.12100
H4026       H  0.12562620  0.90810600  0.72299471     0.11700
H4027       H  0.11586054  0.90934139  0.70344586     0.11200
H4028       H  0.04701388  0.86258497  0.70419521     0.11400
H4029       H  0.18125459  0.94581281  0.70796802     0.14100
H4030       H  0.17435017  0.96783135  0.72105027     0.12900
H4031       H  0.99069817  0.82374627  0.71912134     0.10600
H4032       H  0.99881229  0.80363048  0.70596494     0.12600
C4033       C  0.74853628  0.71820661  0.74541134     0.18700
C4034       C  0.71340577  0.69647132  0.74857264    -0.19400
C4035       C  0.70385400  0.71238503  0.75350264    -0.11700
C4036       C  0.72922702  0.75082136  0.75536317     0.20900
C4037       C  0.76409612  0.77266852  0.75214336    -0.21000
C4038       C  0.77362215  0.75677513  0.74722119    -0.11900
C4039       C  0.72168431  0.76902518  0.76073928    -0.16000
C4040       C  0.68789809  0.75351132  0.76384043    -0.29900
C4041       C  0.75693778  0.70014188  0.74011373    -0.04100
C4042       C  0.79218092  0.71462501  0.73749433    -0.40700
H4043       H  0.69332718  0.66683581  0.74725340     0.12100
H4044       H  0.67689881  0.69406583  0.75585602     0.11700
H4045       H  0.78417658  0.80235336  0.75343787     0.11200
H4046       H  0.80038498  0.77522005  0.74482524     0.11400
H4047       H  0.74562216  0.79655923  0.76227315     0.14100
H4048       H  0.66312046  0.72649732  0.76238921     0.12900
H4049       H  0.73274280  0.67405156  0.73822546     0.10600
H4050       H  0.81702609  0.74020098  0.73933115     0.12600
C4051       C  0.06792262  0.88112434  0.62105336     0.18700
C4052       C  0.10045716  0.88857044  0.61757036    -0.19400
C4053       C  0.13527794  0.92353719  0.61813429    -0.11700
C4054       C  0.13877562  0.95237001  0.62218769     0.20900
C4055       C  0.10608578  0.94546021  0.62563465    -0.21000
C4056       C  0.07098882  0.91023966  0.62506497    -0.11900
C4057       C  0.17686436  0.98913997  0.62240780    -0.16000
C4058       C  0.18702503  0.01956336  0.62618653    -0.29900
C4059       C  0.03200123  0.84252848  0.62033631    -0.04100
C4060       C  0.00184313  0.82805516  0.62422539    -0.40700
H4061       H  0.09910627  0.86701758  0.61442161     0.12100
H4062       H  0.15974557  0.92801109  0.61536816     0.11700
H4063       H  0.10720532  0.96708623  0.62872468     0.11200
H4064       H  0.04649699  0.90639507  0.62773536     0.11400
H4065       H  0.19814247  0.99123423  0.61909768     0.14100
H4066       H  0.16708512  0.01879875  0.62962080     0.12900
H4067       H  0.03142346  0.82418926  0.61663342     0.10600
H4068       H  0.00227562  0.84492200  0.62811759     0.12600
C4069       C  0.64295100  0.45540927  0.61777324     0.18700
C4070       C  0.62828112  0.42694562  0.61322934    -0.19400
C4071       C  0.58926441  0.39737067  0.61331312    -0.11700
C4072       C  0.56392513  0.39582901  0.61795297     0.20900
C4073       C  0.57829285  0.42561517  0.62228571    -0.21000
C4074       C  0.61715360  0.45502836  0.62220002    -0.11900
C4075       C  0.52282199  0.36368401  0.61859700    -0.16000
C4076       C  0.50768498  0.32983558  0.61557369    -0.29900
C4077       C  0.68491052  0.48561658  0.61777021    -0.04100
C4078       C  0.70386888  0.50220843  0.62295479    -0.40700
H4079       H  0.64725809  0.42712130  0.60967641     0.12100
H4080       H  0.57948510  0.37599274  0.60973897     0.11700
H4081       H  0.55948467  0.42582815  0.62583435     0.11200
H4082       H  0.62678826  0.47752140  0.62560766     0.11400
H4083       H  0.50494417  0.36712572  0.62200189     0.14100
H4084       H  0.52507417  0.32504438  0.61227101     0.12900
H4085       H  0.70035166  0.49419995  0.61345881     0.10600
H4086       H  0.68862960  0.49246268  0.62726592     0.12600
C4087       C  0.84305864  0.64496752  0.67466325     0.18700
C4088       C  0.85639659  0.68015110  0.67152895    -0.19400
C4089       C  0.85145564  0.68072078  0.66525335    -0.11700
C4090       C  0.83330124  0.64586394  0.66193502     0.20900
C4091       C  0.82014599  0.61064186  0.66508071    -0.21000
C4092       C  0.82496735  0.61010160  0.67137171    -0.11900
C4093       C  0.82866644  0.64457612  0.65520845    -0.16000
C4094       C  0.84201486  0.67602085  0.65156386    -0.29900
C4095       C  0.84855580  0.64628668  0.68134834    -0.04100
C4096       C  0.82626226  0.61681856  0.68515152    -0.40700
H4097       H  0.87042979  0.70743334  0.67396225     0.12100
H4098       H  0.86213689  0.70864558  0.66309973     0.11700
H4099       H  0.80638806  0.58334984  0.66265023     0.11200
H4100       H  0.81507092  0.58243765  0.67359828     0.11400
H4101       H  0.81524866  0.61604677  0.65311847     0.14100
H4102       H  0.85640680  0.70508346  0.65340759     0.12900
H4103       H  0.86954220  0.67415327  0.68326324     0.10600
H4104       H  0.80330015  0.58951444  0.68338915     0.12600
C4105       C  0.91111894  0.58284286  0.58997015     0.18700
C4106       C  0.88727702  0.54861239  0.58673347    -0.19400
C4107       C  0.90032033  0.53980536  0.58135915    -0.11700
C4108       C  0.93792224  0.56503884  0.57910235     0.20900
C4109       C  0.96184108  0.59898987  0.58238582    -0.21000
C4110       C  0.94884076  0.60774488  0.58774686    -0.11900
C4111       C  0.95356141  0.55807350  0.57333841    -0.16000
C4112       C  0.93562017  0.52561340  0.56992897    -0.29900
C4113       C  0.89609140  0.59078403  0.59571848    -0.04100
C4114       C  0.91224017  0.62587552  0.59842630    -0.40700
H4115       H  0.85822347  0.52865963  0.58834709     0.12100
H4116       H  0.88056288  0.51343266  0.57900882     0.11700
H4117       H  0.99099130  0.61893030  0.58080736     0.11200
H4118       H  0.96888316  0.63377846  0.59015003     0.11400
H4119       H  0.98157571  0.58135491  0.57180054     0.14100
H4120       H  0.90776377  0.50160950  0.57130529     0.12900
H4121       H  0.87051435  0.56672570  0.59777807     0.10600
H4122       H  0.93692992  0.65062365  0.59634930     0.12600
C4123       C  0.87514579  0.96844812  0.70954301     0.18700
C4124       C  0.87321966  0.94974818  0.71506490    -0.19400
C4125       C  0.86298337  0.91060385  0.71519360    -0.11700
C4126       C  0.85483820  0.88925875  0.70976335     0.20900
C4127       C  0.85746287  0.90814270  0.70423179    -0.21000
C4128       C  0.86775755  0.94731949  0.70410176    -0.11900
C4129       C  0.84238000  0.84715779  0.70968251    -0.16000
C4130       C  0.85008396  0.82906347  0.71419690    -0.29900
C4131       C  0.88414943  0.00957296  0.70971042    -0.04100
C4132       C  0.87534995  0.02680383  0.70518773    -0.40700
H4133       H  0.87874433  0.96525441  0.71932445     0.12100
H4134       H  0.86048427  0.89710136  0.71957172     0.11700
H4135       H  0.85157598  0.89250403  0.69998040     0.11200
H4136       H  0.86999828  0.96073412  0.69972582     0.11400
H4137       H  0.82774351  0.83082589  0.70562973     0.14100
H4138       H  0.86710301  0.84543251  0.71808396     0.12900
H4139       H  0.89598894  0.02540045  0.71391716     0.10600
H4140       H  0.86185556  0.01108839  0.70105130     0.12600
C4141       C  0.84363423  0.38082804  0.70986131     0.18700
C4142       C  0.81214545  0.38219626  0.70721717    -0.19400
C4143       C  0.80916982  0.41580931  0.70756142    -0.11700
C4144       C  0.83798448  0.44900207  0.71053069     0.20900
C4145       C  0.86939293  0.44753653  0.71317849    -0.21000
C4146       C  0.87236609  0.41402899  0.71283300    -0.11900
C4147       C  0.83631136  0.48538472  0.71120115    -0.16000
C4148       C  0.81294177  0.49475254  0.70804439    -0.29900
C4149       C  0.84630374  0.34498307  0.70917583    -0.04100
C4150       C  0.86819657  0.33579475  0.71273955    -0.40700
H4151       H  0.78961918  0.35704304  0.70489291     0.12100
H4152       H  0.78410254  0.41534134  0.70556555     0.11700
H4153       H  0.89204611  0.47265379  0.71549372     0.11200
H4154       H  0.89764266  0.41472938  0.71479096     0.11400
H4155       H  0.85633628  0.50611918  0.71447549     0.14100
H4156       H  0.79348987  0.47552470  0.70458535     0.12900
H4157       H  0.82868793  0.32482244  0.70564108     0.10600
H4158       H  0.88416454  0.35411702  0.71654321     0.12600
C4159       C  0.13566726  0.13215052  0.70882975     0.18700
C4160       C  0.13267154  0.16022020  0.70536669    -0.19400
C4161       C  0.10087792  0.16584385  0.70604820    -0.11700
C4162       C  0.07118239  0.14343588  0.71024492     0.20900
C4163       C  0.07343241  0.11435483  0.71354383    -0.21000
C4164       C  0.10525885  0.10869251  0.71285624    -0.11900
C4165       C  0.03667657  0.14827760  0.71109006    -0.16000
C4166       C  0.03605158  0.18067518  0.70949403    -0.29900
C4167       C  0.17102671  0.12864757  0.70810629    -0.04100
C4168       C  0.18320889  0.11249750  0.71231771    -0.40700
H4169       H  0.15526529  0.17820571  0.70215124     0.12100
H4170       H  0.09961266  0.18737477  0.70319835     0.11700
H4171       H  0.05053572  0.09603599  0.71669270     0.11200
H4172       H  0.10556219  0.08570744  0.71544861     0.11400
H4173       H  0.01073535  0.12409428  0.71304704     0.14100
H4174       H  0.06183971  0.20548702  0.70766110     0.12900
H4175       H  0.18922033  0.14244364  0.70415041     0.10600
H4176       H  0.16659362  0.10029617  0.71645242     0.12600
C4177       C  0.57320038  0.15098266  0.70710924     0.18700
C4178       C  0.60480705  0.17933844  0.70376687    -0.19400
C4179       C  0.64089026  0.18104260  0.70391385    -0.11700
C4180       C  0.64590114  0.15388686  0.70736062     0.20900
C4181       C  0.61392838  0.12501295  0.71056630    -0.21000
C4182       C  0.57803188  0.12337915  0.71042497    -0.11900
C4183       C  0.68373549  0.15483726  0.70795940    -0.16000
C4184       C  0.71582196  0.17755078  0.70465847    -0.29900
C4185       C  0.53550330  0.15052640  0.70700294    -0.04100
C4186       C  0.50965993  0.13582945  0.71160282    -0.40700
H4187       H  0.60178493  0.20074774  0.70113169     0.12100
H4188       H  0.66460774  0.20407642  0.70141068     0.11700
H4189       H  0.61671056  0.10351397  0.71321737     0.11200
H4190       H  0.55409374  0.10014244  0.71287583     0.11400
H4191       H  0.68518351  0.13570734  0.71136171     0.14100
H4192       H  0.71549135  0.19660462  0.70115635     0.12900
H4193       H  0.52953282  0.16386607  0.70314278     0.10600
H4194       H  0.51648259  0.12461380  0.71563644     0.12600
C4195       C  0.98913790  0.24033842  0.74373255     0.18700
C4196       C  0.00618880  0.27692123  0.74650705    -0.19400
C4197       C  0.02669349  0.28386333  0.75196303    -0.11700
C4198       C  0.03078385  0.25424049  0.75479649     0.20900
C4199       C  0.01244780  0.21723999  0.75214213    -0.21000
C4200       C  0.99189451  0.21028564  0.74668013    -0.11900
C4201       C  0.05261690  0.26042698  0.76060604    -0.16000
C4202       C  0.07933588  0.29576636  0.76263062    -0.29900
C4203       C  0.96811113  0.23468701  0.73786803    -0.04100
C4204       C  0.96022047  0.20563683  0.73395262    -0.40700
H4205       H  0.00382628  0.30039205  0.74442455     0.12100
H4206       H  0.03866847  0.31235321  0.75395891     0.11700
H4207       H  0.01420720  0.19360311  0.75428782     0.11200
H4208       H  0.97789701  0.18122070  0.74485266     0.11400
H4209       H  0.04653714  0.23500356  0.76329038     0.14100
H4210       H  0.08657474  0.32134470  0.75992565     0.12900
H4211       H  0.96005357  0.25622016  0.73663011     0.10600
H4212       H  0.96954322  0.18482377  0.73495807     0.12600
C4213       C  0.55053134  0.16086726  0.61585262     0.18700
C4214       C  0.58473751  0.18394307  0.61255496    -0.19400
C4215       C  0.61530445  0.17591451  0.61268331    -0.11700
C4216       C  0.61187599  0.14405476  0.61604512     0.20900
C4217       C  0.57695594  0.12018753  0.61912911    -0.21000
C4218       C  0.54661780  0.12833073  0.61902234    -0.11900
C4219       C  0.64441881  0.13595292  0.61685065    -0.16000
C4220       C  0.67765530  0.15290850  0.61361529    -0.29900
C4221       C  0.51921943  0.17100109  0.61593047    -0.04100
C4222       C  0.49620181  0.16388144  0.62082184    -0.40700
H4223       H  0.58829178  0.20896138  0.61003133     0.12100
H4224       H  0.64172024  0.19549381  0.61029569     0.11700
H4225       H  0.57327606  0.09532885  0.62171503     0.11200
H4226       H  0.52009327  0.10903538  0.62143007     0.11400
H4227       H  0.64117651  0.11570545  0.62044450     0.14100
H4228       H  0.68152033  0.17244561  0.60989286     0.12900
H4229       H  0.51581461  0.18549995  0.61197811     0.10600
H4230       H  0.50131095  0.15156394  0.62489444     0.12600
C4231       C  0.12273417  0.15811155  0.62582044     0.18700
C4232       C  0.09071666  0.13209828  0.62933952    -0.19400
C4233       C  0.05535451  0.13180139  0.62894592    -0.11700
C4234       C  0.05168181  0.15811483  0.62507723     0.20900
C4235       C  0.08430730  0.18503592  0.62175234    -0.21000
C4236       C  0.11938581  0.18517933  0.62212606    -0.11900
C4237       C  0.01471232  0.15838478  0.62414115    -0.16000
C4238       C  0.98076448  0.13551922  0.62703170    -0.29900
C4239       C  0.15940069  0.15680229  0.62607733    -0.04100
C4240       C  0.18317061  0.16604105  0.62123159    -0.40700
H4241       H  0.09279529  0.11130803  0.63228176     0.12100
H4242       H  0.03115910  0.11059862  0.63160666     0.11700
H4243       H  0.08261461  0.20597265  0.61879069     0.11200
H4244       H  0.14388236  0.20668712  0.61953152     0.11400
H4245       H  0.01557515  0.17868942  0.62073721     0.14100
H4246       H  0.97852826  0.11531692  0.63054077     0.12900
H4247       H  0.16635558  0.14703413  0.63026631     0.10600
H4248       H  0.17511054  0.17376285  0.61695153     0.12600
C4249       C  0.85017536  0.36655022  0.62200975     0.18700
C4250       C  0.87916865  0.40038786  0.62474483    -0.19400
C4251       C  0.88004839  0.43567423  0.62391237    -0.11700
C4252       C  0.85172949  0.43771091  0.62031973     0.20900
C4253       C  0.82204367  0.40357481  0.61775166    -0.21000
C4254       C  0.82121159  0.36835201  0.61857668    -0.11900
C4255       C  0.85068194  0.47425494  0.61950786    -0.16000
C4256       C  0.88198907  0.50949296  0.62024629    -0.29900
C4257       C  0.85021318  0.32959718  0.62289615    -0.04100
C4258       C  0.83615433  0.30183787  0.61864113    -0.40700
H4259       H  0.90129995  0.39954544  0.62750691     0.12100
H4260       H  0.90242444  0.46091224  0.62621618     0.11700
H4261       H  0.79934222  0.40414346  0.61510722     0.11200
H4262       H  0.79743589  0.34251382  0.61660908     0.11400
H4263       H  0.82286853  0.47198769  0.61848505     0.14100
H4264       H  0.91008199  0.51243729  0.62121323     0.12900
H4265       H  0.86310776  0.32572537  0.62700522     0.10600
H4266       H  0.82558337  0.30685326  0.61437355     0.12600
C4267       C  0.82667386  0.85482390  0.62541086     0.18700
C4268       C  0.80655316  0.86322677  0.62097143    -0.19400
C4269       C  0.80827942  0.89916721  0.62082121    -0.11700
C4270       C  0.83060722  0.92800532  0.62510088     0.20900
C4271       C  0.84983487  0.91933261  0.62966094    -0.21000
C4272       C  0.84805402  0.88325343  0.62982238    -0.11900
C4273       C  0.83361214  0.96687381  0.62504963    -0.16000
C4274       C  0.82611536  0.98210723  0.62010192    -0.29900
C4275       C  0.82504228  0.81654685  0.62508388    -0.04100
C4276       C  0.84456587  0.80516266  0.62877408    -0.40700
H4277       H  0.78947207  0.84188292  0.61755895     0.12100
H4278       H  0.79161624  0.90380449  0.61737786     0.11700
H4279       H  0.86672735  0.94075979  0.63307501     0.11200
H4280       H  0.86372684  0.87829509  0.63339037     0.11400
H4281       H  0.84284716  0.98372443  0.62921589     0.14100
H4282       H  0.81826838  0.96643232  0.61583662     0.12900
H4283       H  0.80794500  0.79728098  0.62142316     0.10600
H4284       H  0.86214551  0.82348677  0.63245840     0.12600
C4285       C  0.83199331  0.16195841  0.67093876     0.18700
C4286       C  0.83566850  0.13416700  0.66753828    -0.19400
C4287       C  0.84042328  0.13766505  0.66124832    -0.11700
C4288       C  0.84199400  0.16945730  0.65816622     0.20900
C4289       C  0.83754460  0.19698469  0.66153656    -0.21000
C4290       C  0.83274693  0.19346901  0.66786365    -0.11900
C4291       C  0.84611754  0.17367935  0.65143879    -0.16000
C4292       C  0.85875868  0.15438743  0.64793640    -0.29900
C4293       C  0.82967993  0.15732617  0.67766141    -0.04100
C4294       C  0.82726698  0.18169191  0.68164858    -0.40700
H4295       H  0.83504576  0.10951408  0.66976669     0.12100
H4296       H  0.84215203  0.11488378  0.65885704     0.11700
H4297       H  0.83807281  0.22147818  0.65926924     0.11200
H4298       H  0.83009422  0.21568417  0.67026892     0.11400
H4299       H  0.83745469  0.19280150  0.64927620     0.14100
H4300       H  0.86833913  0.13573367  0.64996523     0.12900
H4301       H  0.83254252  0.13334040  0.67944356     0.10600
H4302       H  0.82410981  0.20588365  0.68011068     0.12600
C4303       C  0.65501880  0.05244120  0.57663133     0.18700
C4304       C  0.66858340  0.08679024  0.57995235    -0.19400
C4305       C  0.69292038  0.09413859  0.58494024    -0.11700
C4306       C  0.70475743  0.06742316  0.58664390     0.20900
C4307       C  0.69124935  0.03311211  0.58331943    -0.21000
C4308       C  0.66692847  0.02577330  0.57832439    -0.11900
C4309       C  0.72942949  0.07360178  0.59204332    -0.16000
C4310       C  0.75393031  0.10911137  0.59418200    -0.29900
C4311       C  0.62979431  0.04617395  0.57130462    -0.04100
C4312       C  0.60598037  0.01089116  0.56899680    -0.40700
H4313       H  0.65988889  0.10778303  0.57873239     0.12100
H4314       H  0.70153198  0.12031446  0.58751646     0.11700
H4315       H  0.69987432  0.01209813  0.58455613     0.11200
H4316       H  0.65824499  0.99955369  0.57576072     0.11400
H4317       H  0.72653457  0.04823041  0.59440554     0.14100
H4318       H  0.75775594  0.13464547  0.59176803     0.12900
H4319       H  0.63103569  0.07156347  0.56920470     0.10600
H4320       H  0.60338897  0.98509928  0.57114361     0.12600
loop_ 
_geom_bond_atom_site_label_1 
_geom_bond_atom_site_label_2 
_geom_bond_distance 
_geom_bond_site_symmetry_2 
_ccdc_geom_bond_type 
Zr1           O2   2.439       .  S
Zr1           O3   2.428       .  S
Zr1           O4   2.403       .  S
Zr1           O7   2.398       .  S
Zr1           O9   2.375       .  S
Zr1          O10   2.378       .  S
Zr1          O11   2.398       .  S
Zr1          O12   2.395       .  S
O2           H58   0.990       .  S
O2           H66   0.990       .  S
O3           C23   1.282       .  A
O4           C25   1.278       .  A
O5          Zr15   2.448       .  S
O5           C24   1.287       .  A
O6          Zr14   2.442       .  S
O6           C25   1.287       .  A
O7           C24   1.278       .  A
O8          Zr16   2.435       .  S
O8           C23   1.285       .  A
O9          Zr14   2.387       .  S
O9          Zr16   2.370       .  S
O10         Zr15   2.386       .  S
O10         Zr16   2.375       .  S
O10          H45   0.966       .  S
O11         Zr14   2.391       .  S
O11         Zr31   2.399       .  S
O11          H48   0.967       .  S
O12         Zr15   2.387       .  S
O12         Zr31   2.395       .  S
Zr13         O38   2.447       .  S
Zr13         O32   2.445       .  S
Zr13         O40   2.438       .  S
Zr13         O28   2.433       .  S
Zr13         O19   2.402       .  S
Zr13         O20   2.410       .  S
Zr13         O21   2.379       .  S
Zr13         O22   2.386       .  S
Zr14         O33   2.434       .  S
Zr14         O26   2.434       .  S
Zr14         O27   2.428       .  S
Zr14         O20   2.397       .  S
Zr14         O21   2.389       .  S
Zr15         O17   2.436       .  S
Zr15         O39   2.438       .  S
Zr15         O41   2.424       .  S
Zr15         O19   2.395       .  S
Zr15         O22   2.391       .  S
Zr16         O42   2.435       .  S
Zr16         O43   2.435       .  S
Zr16         O18   2.436       .  S
Zr16         O19   2.394       .  S
Zr16         O20   2.402       .  S
O17          H54   0.990       .  S
O18          H49   0.990       .  S
O18          H63   0.990       .  S
O20          H46   0.966       .  S
O21         Zr31   2.372       .  S
O22         Zr31   2.384       .  S
O22          H47   0.965       .  S
C23        C4220   1.481       .  S
C24        C4258   1.469       .  S
C25        C4310   1.468       .  S
O26          H62   0.990       .  S
O27          C29   1.284       .  A
O28          C29   1.285       .  A
C29        C4274   1.476   1_545  S
O30         Zr31   2.440       .  S
O30          H59   0.990       .  S
Zr31         O34   2.437       .  S
Zr31         O35   2.439       .  S
Zr31         O36   2.418       .  S
O32          C37   1.286       .  A
O33          H50   0.990       .  S
O33          H65   0.990       .  S
O34          H51   0.990       .  S
O35          H55   0.990       .  S
O35          H64   0.990       .  S
O36          C37   1.283       .  A
C37        C4238   1.484       .  S
O38          H57   0.990       .  S
O38          H61   0.991       .  S
O39          H53   0.990       .  S
O39          H60   0.990       .  S
O40          C44   1.285       .  A
O41          C44   1.284       .  A
O42          H52   0.990       .  S
O43          H56   0.990       .  S
C44        C4292   1.475       .  S
Zr67         O68   2.440       .  S
Zr67         O69   2.428       .  S
Zr67         O70   2.434       .  S
Zr67         O73   2.425       .  S
Zr67         O75   2.383       .  S
Zr67         O76   2.382       .  S
Zr67         O77   2.403       .  S
Zr67         O78   2.403       .  S
O68         H124   0.990       .  S
O68         H132   0.990       .  S
O69          C89   1.282       .  A
O70          C91   1.283       .  A
O71         Zr81   2.440       .  S
O71          C90   1.286       .  A
O72         Zr80   2.428       .  S
O72          C91   1.285       .  A
O73          C90   1.285       .  A
O74         Zr82   2.433       .  S
O74          C89   1.285       .  A
O75         Zr80   2.391       .  S
O75         Zr82   2.379       .  S
O76         Zr81   2.390       .  S
O76         Zr82   2.368       .  S
O76         H111   0.966       .  S
O77         Zr80   2.399       .  S
O77         Zr97   2.386       .  S
O77         H114   0.965       .  S
O78         Zr81   2.396       .  S
O78         Zr97   2.395       .  S
Zr79        O104   2.443       .  S
Zr79         O98   2.435       .  S
Zr79        O106   2.436       .  S
Zr79         O94   2.436       .  S
Zr79         O85   2.406       .  S
Zr79         O86   2.407       .  S
Zr79         O87   2.377       .  S
Zr79         O88   2.383       .  S
Zr80         O99   2.437       .  S
Zr80         O92   2.436       .  S
Zr80         O93   2.432       .  S
Zr80         O86   2.393       .  S
Zr80         O87   2.387       .  S
Zr81         O83   2.435       .  S
Zr81        O105   2.436       .  S
Zr81        O107   2.442       .  S
Zr81         O85   2.391       .  S
Zr81         O88   2.393       .  S
Zr82        O108   2.435       .  S
Zr82        O109   2.435       .  S
Zr82         O84   2.436       .  S
Zr82         O85   2.404       .  S
Zr82         O86   2.392       .  S
O83         H120   0.990       .  S
O84         H115   0.990       .  S
O84         H129   0.990       .  S
O86         H112   0.965       .  S
O87         Zr97   2.378       .  S
O88         Zr97   2.365       .  S
O88         H113   0.964       .  S
C89        C4184   1.481       .  S
C90        C4150   1.480       .  S
C91        C4294   1.478       .  S
O92         H128   0.990       .  S
O93          C95   1.284       .  A
O94          C95   1.286       .  A
C95        C4132   1.479       .  S
O96         Zr97   2.438       .  S
O96         H125   0.990   1_655  S
Zr97        O100   2.437       .  S
Zr97        O101   2.439   1_655  S
Zr97        O102   2.422   1_655  S
O98         C103   1.285   1_655  A
O99         H116   0.990       .  S
O99         H131   0.990       .  S
O100        H117   0.990       .  S
O101        H121   0.990       .  S
O101        H130   0.990   1_455  S
O102        C103   1.281       .  A
C103       C4166   1.475       .  S
O104        H123   0.990       .  S
O104        H127   0.990       .  S
O105        H119   0.990       .  S
O105        H126   0.990       .  S
O106        C110   1.285       .  A
O107        C110   1.287       .  A
O108        H118   0.990       .  S
O109        H122   0.990       .  S
C110       C4204   1.482       .  S
Zr133       O134   2.439       .  S
Zr133       O135   2.441       .  S
Zr133       O136   2.446       .  S
Zr133       O139   2.455       .  S
Zr133       O141   2.386       .  S
Zr133       O142   2.386       .  S
Zr133       O143   2.417       .  S
Zr133       O144   2.397       .  S
O134        H190   0.990       .  S
O134        H198   0.990       .  S
O135        C155   1.286       .  A
O136        C157   1.287       .  A
O137       Zr147   2.419       .  S
O137        C156   1.282       .  A
O138       Zr146   2.436       .  S
O138        C157   1.285       .  A
O139        C156   1.289       .  A
O140       Zr148   2.413       .  S
O140        C155   1.279       .  A
O141       Zr146   2.394       .  S
O141       Zr148   2.369       .  S
O142       Zr147   2.387       .  S
O142       Zr148   2.385       .  S
O142        H177   0.965       .  S
O143       Zr146   2.406       .  S
O143       Zr163   2.410       .  S
O143        H180   0.966       .  S
O144       Zr147   2.387       .  S
O144       Zr163   2.391       .  S
Zr145       O170   2.445       .  S
Zr145       O164   2.422       .  S
Zr145       O172   2.430       .  S
Zr145       O160   2.416       .  S
Zr145       O151   2.391       .  S
Zr145       O152   2.403       .  S
Zr145       O153   2.379       .  S
Zr145       O154   2.380       .  S
Zr146       O165   2.435       .  S
Zr146       O158   2.435       .  S
Zr146       O159   2.459       .  S
Zr146       O152   2.394       .  S
Zr146       O153   2.382       .  S
Zr147       O149   2.436       .  S
Zr147       O171   2.440       .  S
Zr147       O173   2.420       .  S
Zr147       O151   2.384       .  S
Zr147       O154   2.389       .  S
Zr148       O174   2.435       .  S
Zr148       O175   2.435       .  S
Zr148       O150   2.436       .  S
Zr148       O151   2.387       .  S
Zr148       O152   2.392       .  S
O149        H186   0.990       .  S
O150        H181   0.990       .  S
O150        H195   0.990       .  S
O152        H178   0.967       .  S
O153       Zr163   2.369       .  S
O154       Zr163   2.383       .  S
O154        H179   0.967       .  S
C155       C4256   1.469       .  S
C156       C4078   1.478       .  S
C157       C4114   1.485       .  S
O158        H194   0.990       .  S
O159        C161   1.291       .  A
O160        C161   1.281       .  A
C161       C4060   1.482   1_655  S
O162       Zr163   2.440       .  S
O162        H191   0.990       .  S
Zr163       O166   2.437       .  S
Zr163       O167   2.439       .  S
Zr163       O168   2.439       .  S
O164        C169   1.282       .  A
O165        H182   0.990       .  S
O165        H197   0.990       .  S
O166        H183   0.990       .  S
O167        H187   0.990       .  S
O167        H196   0.990       .  S
O168        C169   1.286       .  A
C169       C4276   1.480       .  S
O170        H189   0.990       .  S
O170        H193   0.990       .  S
O171        H185   0.990       .  S
O171        H192   0.990       .  S
O172        C176   1.283       .  A
O173        C176   1.283       .  A
O174        H184   0.990       .  S
O175        H188   0.990       .  S
C176       C4094   1.474       .  S
Zr199       O200   2.440       .  S
Zr199       O201   2.450       .  S
Zr199       O202   2.440       .  S
Zr199       O205   2.421       .  S
Zr199       O207   2.379       .  S
Zr199       O208   2.384       .  S
Zr199       O209   2.411       .  S
Zr199       O210   2.412       .  S
O200        H256   0.990       .  S
O200        H264   0.990       .  S
O201        C221   1.286       .  A
O202        C223   1.284       .  A
O203       Zr213   2.459       .  S
O203        C222   1.289       .  A
O204       Zr212   2.425       .  S
O204        C223   1.284       .  A
O205        C222   1.283       .  A
O206       Zr214   2.411       .  S
O206        C221   1.281       .  A
O207       Zr212   2.390       .  S
O207       Zr214   2.382       .  S
O208       Zr213   2.390       .  S
O208       Zr214   2.370       .  S
O208        H243   0.967       .  S
O209       Zr212   2.398       .  S
O209       Zr229   2.391       .  S
O209        H246   0.964       .  S
O210       Zr213   2.391       .  S
O210       Zr229   2.410       .  S
Zr211       O236   2.441       .  S
Zr211       O230   2.420       .  S
Zr211       O238   2.436       .  S
Zr211       O226   2.455       .  S
Zr211       O217   2.406       .  S
Zr211       O218   2.399       .  S
Zr211       O219   2.379       .  S
Zr211       O220   2.388       .  S
Zr212       O231   2.438       .  S
Zr212       O224   2.434       .  S
Zr212       O225   2.418       .  S
Zr212       O218   2.396       .  S
Zr212       O219   2.386       .  S
Zr213       O215   2.434       .  S
Zr213       O237   2.436       .  S
Zr213       O239   2.441       .  S
Zr213       O217   2.401       .  S
Zr213       O220   2.396       .  S
Zr214       O240   2.435       .  S
Zr214       O241   2.435       .  S
Zr214       O216   2.436       .  S
Zr214       O217   2.396       .  S
Zr214       O218   2.385       .  S
O215        H252   0.990       .  S
O216        H247   0.990       .  S
O216        H261   0.990       .  S
O218        H244   0.965       .  S
O219       Zr229   2.372       .  S
O220       Zr229   2.364       .  S
O220        H245   0.964       .  S
C221       C4148   1.485       .  S
C222       C4004   1.488       .  S
C223       C4096   1.477       .  S
O224        H260   0.990       .  S
O225        C227   1.282       .  A
O226        C227   1.289       .  A
C227       C4024   1.478       .  S
O228       Zr229   2.439       .  S
O228        H257   0.991       .  S
Zr229       O232   2.437       .  S
Zr229       O233   2.441       .  S
Zr229       O234   2.446       .  S
O230        C235   1.281       .  A
O231        H248   0.990       .  S
O231        H263   0.990       .  S
O232        H249   0.990       .  S
O233        H253   0.990       .  S
O233        H262   0.990       .  S
O234        C235   1.287       .  A
C235       C4130   1.479       .  S
O236        H255   0.990       .  S
O236        H259   0.990       .  S
O237        H251   0.990       .  S
O237        H258   0.990       .  S
O238        C242   1.286       .  A
O239        C242   1.288       .  A
O240        H250   0.990       .  S
O241        H254   0.990       .  S
C242       C4042   1.479       .  S
Zr265       O266   2.437       .  S
Zr265       O267   2.418       .  S
Zr265       O268   2.460       .  S
Zr265       O271   2.439       .  S
Zr265       O273   2.378       .  S
Zr265       O274   2.389       .  S
Zr265       O275   2.403       .  S
Zr265       O276   2.401       .  S
O266        H322   0.990       .  S
O266        H330   0.990       .  S
O267        C287   1.281       .  A
O268        C289   1.290       .  A
O269       Zr279   2.432       .  S
O269        C288   1.285       .  A
O270       Zr278   2.407       .  S
O270        C289   1.280       .  A
O271        C288   1.288       .  A
O272       Zr280   2.459       .  S
O272        C287   1.289       .  A
O273       Zr278   2.390       .  S
O273       Zr280   2.366       .  S
O274       Zr279   2.390       .  S
O274       Zr280   2.371       .  S
O274        H309   0.964       .  S
O275       Zr278   2.396       .  S
O275       Zr295   2.397       .  S
O275        H312   0.967       .  S
O276       Zr279   2.392       .  S
O276       Zr295   2.382       .  S
Zr277       O302   2.447       .  S
Zr277       O296   2.461       .  S
Zr277       O304   2.436       .  S
Zr277       O292   2.432       .  S
Zr277       O283   2.407       .  S
Zr277       O284   2.415       .  S
Zr277       O285   2.374       .  S
Zr277       O286   2.383       .  S
Zr278       O297   2.437       .  S
Zr278       O290   2.434       .  S
Zr278       O291   2.427       .  S
Zr278       O284   2.391       .  S
Zr278       O285   2.375       .  S
Zr279       O281   2.435       .  S
Zr279       O303   2.439       .  S
Zr279       O305   2.448       .  S
Zr279       O283   2.384       .  S
Zr279       O286   2.390       .  S
Zr280       O306   2.436       .  S
Zr280       O307   2.435       .  S
Zr280       O282   2.437       .  S
Zr280       O283   2.404       .  S
Zr280       O284   2.416       .  S
O281        H318   0.990       .  S
O282        H313   0.990       .  S
O282        H327   0.990       .  S
O284        H310   0.967       .  S
O285       Zr295   2.372       .  S
O286       Zr295   2.387       .  S
O286        H311   0.967       .  S
C287       C4076   1.483       .  S
C288       C4222   1.477       .  S
C289       C3988   1.476       .  S
O290        H326   0.990       .  S
O291        C293   1.283       .  A
O292        C293   1.284       .  A
C293       C4240   1.475       .  S
O294       Zr295   2.439       .  S
O294        H323   0.990       .  S
Zr295       O298   2.438       .  S
Zr295       O299   2.440       .  S
Zr295       O300   2.410       .  S
O296        C301   1.289       .  A
O297        H314   0.990       .  S
O297        H329   0.990       .  S
O298        H315   0.990       .  S
O299        H319   0.990       .  S
O299        H328   0.990       .  S
O300        C301   1.281       .  A
C301       C4058   1.490       .  S
O302        H321   0.990       .  S
O302        H325   0.990       .  S
O303        H317   0.990       .  S
O303        H324   0.990       .  S
O304        C308   1.285       .  A
O305        C308   1.288       .  A
O306        H316   0.990       .  S
O307        H320   0.990       .  S
C308       C3970   1.486       .  S
Zr331       O332   2.440       .  S
Zr331       O333   2.459       .  S
Zr331       O334   2.442       .  S
Zr331       O337   2.437       .  S
Zr331       O339   2.384       .  S
Zr331       O340   2.378       .  S
Zr331       O341   2.414       .  S
Zr331       O342   2.413       .  S
O332        H388   0.990       .  S
O332        H396   0.990       .  S
O333        C353   1.288       .  A
O334        C355   1.285       .  A
O335       Zr345   2.429       .  S
O335        C354   1.284       .  A
O336       Zr344   2.452       .  S
O336        C355   1.288       .  A
O337        C354   1.286       .  A
O338       Zr346   2.407       .  S
O338        C353   1.280       .  A
O339       Zr344   2.401       .  S
O339       Zr346   2.387       .  S
O340       Zr345   2.386       .  S
O340       Zr346   2.375       .  S
O340        H375   0.967       .  S
O341       Zr344   2.399       .  S
O341       Zr361   2.395       .  S
O341        H378   0.965       .  S
O342       Zr345   2.393       .  S
O342       Zr361   2.411       .  S
Zr343       O368   2.439       .  S
Zr343       O362   2.405       .  S
Zr343       O370   2.438       .  S
Zr343       O358   2.426       .  S
Zr343       O349   2.394       .  S
Zr343       O350   2.402       .  S
Zr343       O351   2.382       .  S
Zr343       O352   2.378       .  S
Zr344       O363   2.437       .  S
Zr344       O356   2.434       .  S
Zr344       O357   2.443       .  S
Zr344       O350   2.404       .  S
Zr344       O351   2.387       .  S
Zr345       O347   2.435       .  S
Zr345       O369   2.436       .  S
Zr345       O371   2.436       .  S
Zr345       O349   2.391       .  S
Zr345       O352   2.384       .  S
Zr346       O372   2.437       .  S
Zr346       O373   2.436       .  S
Zr346       O348   2.436       .  S
Zr346       O349   2.397       .  S
Zr346       O350   2.385       .  S
O347        H384   0.990       .  S
O348        H379   0.990       .  S
O348        H393   0.990       .  S
O350        H376   0.965       .  S
O351       Zr361   2.366       .  S
O352       Zr361   2.366       .  S
O352        H377   0.964       .  S
C353       C4006   1.488       .  S
C354       C4186   1.479       .  S
C355       C3968   1.486       .  S
O356        H392   0.990       .  S
O357        C359   1.288       .  A
O358        C359   1.284       .  A
C359       C4168   1.478       .  S
O360       Zr361   2.439       .  S
O360        H389   0.990   1_545  S
Zr361       O364   2.437       .  S
Zr361       O365   2.440   1_545  S
Zr361       O366   2.456       .  S
O362        C367   1.279       .  A
O363        H380   0.990       .  S
O363        H395   0.990       .  S
O364        H381   0.990   1_545  S
O365        H385   0.990       .  S
O365        H394   0.990   1_565  S
O366        C367   1.289       .  A
C367       C4022   1.476   1_545  S
O368        H387   0.990       .  S
O368        H391   0.990       .  S
O369        H383   0.990       .  S
O369        H390   0.990       .  S
O370        C374   1.287       .  A
O371        C374   1.285       .  A
O372        H382   0.990       .  S
O373        H386   0.990       .  S
C374       C3950   1.480       .  S
Zr397       O398   2.439       .  S
Zr397       O399   2.444       .  S
Zr397       O400   2.444       .  S
Zr397       O403   2.434       .  S
Zr397       O405   2.376       .  S
Zr397       O406   2.385       .  S
Zr397       O407   2.412       .  S
Zr397       O408   2.402       .  S
O398        H454   0.990       .  S
O398        H462   0.990       .  S
O399        C419   1.286       .  A
O400        C421   1.286       .  A
O401       Zr411   2.429       .  S
O401        C420   1.283       .  A
O402       Zr410   2.442       .  S
O402        C421   1.288       .  A
O403        C420   1.286       .  A
O404       Zr412   2.437       .  S
O404        C419   1.284       .  A
O405       Zr410   2.389       .  S
O405       Zr412   2.364       .  S
O406       Zr411   2.390       .  S
O406       Zr412   2.379       .  S
O406        H441   0.966       .  S
O407       Zr410   2.398       .  S
O407       Zr427   2.408       .  S
O407        H444   0.968       .  S
O408       Zr411   2.389       .  S
O408       Zr427   2.395       .  S
Zr409       O434   2.442       .  S
Zr409       O428   2.457       .  S
Zr409       O436   2.444       .  S
Zr409       O424   2.423       .  S
Zr409       O415   2.402       .  S
Zr409       O416   2.412       .  S
Zr409       O417   2.380       .  S
Zr409       O418   2.381       .  S
Zr410       O429   2.434       .  S
Zr410       O422   2.437       .  S
Zr410       O423   2.442       .  S
Zr410       O416   2.395       .  S
Zr410       O417   2.394       .  S
Zr411       O413   2.437       .  S
Zr411       O435   2.440       .  S
Zr411       O437   2.432       .  S
Zr411       O415   2.388       .  S
Zr411       O418   2.393       .  S
Zr412       O438   2.435       .  S
Zr412       O439   2.435       .  S
Zr412       O414   2.437       .  S
Zr412       O415   2.395       .  S
Zr412       O416   2.401       .  S
O413        H450   0.990       .  S
O414        H445   0.990       .  S
O414        H459   0.990       .  S
O416        H442   0.967       .  S
O417       Zr427   2.373       .  S
O418       Zr427   2.387       .  S
O418        H443   0.965       .  S
C419       C3896   1.482       .  S
C420       C3934   1.477       .  S
C421       C3844   1.486       .  S
O422        H458   0.990       .  S
O423        C425   1.286       .  A
O424        C425   1.284       .  A
C425       C3916   1.481       .  S
O426       Zr427   2.439       .  S
O426        H455   0.990       .  S
Zr427       O430   2.437       .  S
Zr427       O431   2.439       .  S
Zr427       O432   2.439       .  S
O428        C433   1.288       .  A
O429        H446   0.990       .  S
O429        H461   0.990       .  S
O430        H447   0.990       .  S
O431        H451   0.990       .  S
O431        H460   0.990       .  S
O432        C433   1.286       .  A
C433       C3878   1.496       .  S
O434        H453   0.990       .  S
O434        H457   0.990       .  S
O435        H449   0.990       .  S
O435        H456   0.990       .  S
O436        C440   1.285       .  A
O437        C440   1.285       .  A
O438        H448   0.990       .  S
O439        H452   0.990       .  S
C440       C3860   1.483       .  S
Zr463       O464   2.443       .  S
Zr463       O465   2.444       .  S
Zr463       O466   2.449       .  S
Zr463       O469   2.430       .  S
Zr463       O471   2.381       .  S
Zr463       O472   2.385       .  S
Zr463       O473   2.410       .  S
Zr463       O474   2.410       .  S
O464        H520   0.991       .  S
O464        H528   0.990       .  S
O465        C485   1.285       .  A
O466        C487   1.285       .  A
O467       Zr477   2.428       .  S
O467        C486   1.283       .  A
O468       Zr476   2.424       .  S
O468        C487   1.283       .  A
O469        C486   1.284       .  A
O470       Zr478   2.413       .  S
O470        C485   1.279       .  A
O471       Zr476   2.395       .  S
O471       Zr478   2.384       .  S
O472       Zr477   2.390       .  S
O472       Zr478   2.375       .  S
O472        H507   0.967       .  S
O473       Zr476   2.397       .  S
O473       Zr493   2.390       .  S
O473        H510   0.965       .  S
O474       Zr477   2.394       .  S
O474       Zr493   2.397       .  S
Zr475       O500   2.442       .  S
Zr475       O494   2.432       .  S
Zr475       O502   2.451       .  S
Zr475       O490   2.454       .  S
Zr475       O481   2.408       .  S
Zr475       O482   2.406       .  S
Zr475       O483   2.379       .  S
Zr475       O484   2.388       .  S
Zr476       O495   2.438       .  S
Zr476       O488   2.435       .  S
Zr476       O489   2.416       .  S
Zr476       O482   2.396       .  S
Zr476       O483   2.385       .  S
Zr477       O479   2.436       .  S
Zr477       O501   2.436       .  S
Zr477       O503   2.431       .  S
Zr477       O481   2.394       .  S
Zr477       O484   2.390       .  S
Zr478       O504   2.436       .  S
Zr478       O505   2.435       .  S
Zr478       O480   2.437       .  S
Zr478       O481   2.400       .  S
Zr478       O482   2.392       .  S
O479        H516   0.990       .  S
O480        H511   0.990       .  S
O480        H525   0.990       .  S
O482        H508   0.965       .  S
O483       Zr493   2.372       .  S
O484       Zr493   2.368       .  S
O484        H509   0.965       .  S
C485       C3806   1.476       .  S
C486       C3788   1.476       .  S
C487       C3862   1.480       .  S
O488        H524   0.990       .  S
O489        C491   1.281       .  A
O490        C491   1.289       .  A
C491       C3772   1.475       .  S
O492       Zr493   2.438       .  S
O492        H521   0.990       .  S
Zr493       O496   2.437       .  S
Zr493       O497   2.439       .  S
Zr493       O498   2.426       .  S
O494        C499   1.285       .  A
O495        H512   0.990       .  S
O495        H527   0.990       .  S
O496        H513   0.990       .  S
O497        H517   0.990       .  S
O497        H526   0.990       .  S
O498        C499   1.282       .  A
C499       C3824   1.477   1_455  S
O500        H519   0.990       .  S
O500        H523   0.990       .  S
O501        H515   0.990       .  S
O501        H522   0.990       .  S
O502        C506   1.289       .  A
O503        C506   1.284       .  A
O504        H514   0.990       .  S
O505        H518   0.990       .  S
C506       C4202   1.481       .  S
Zr529       O530   2.439       .  S
Zr529       O531   2.419       .  S
Zr529       O532   2.455       .  S
Zr529       O535   2.448       .  S
Zr529       O537   2.385       .  S
Zr529       O538   2.388       .  S
Zr529       O539   2.400       .  S
Zr529       O540   2.403       .  S
O530        H586   0.990       .  S
O530        H594   0.990       .  S
O531        C551   1.281       .  A
O532        C553   1.289       .  A
O533       Zr543   2.433       .  S
O533        C552   1.284       .  A
O534       Zr542   2.402       .  S
O534        C553   1.278       .  A
O535        C552   1.288       .  A
O536       Zr544   2.457       .  S
O536        C551   1.289       .  A
O537       Zr542   2.391       .  S
O537       Zr544   2.367       .  S
O538       Zr543   2.382       .  S
O538       Zr544   2.368       .  S
O538        H573   0.966       .  S
O539       Zr542   2.395       .  S
O539       Zr559   2.392       .  S
O539        H576   0.967       .  S
O540       Zr543   2.388       .  S
O540       Zr559   2.382       .  S
Zr541       O566   2.441       .  S
Zr541       O560   2.474       .  S
Zr541       O568   2.460       .  S
Zr541       O556   2.470       .  S
Zr541       O547   2.413       .  S
Zr541       O548   2.421       .  S
Zr541       O549   2.380       .  S
Zr541       O550   2.392       .  S
Zr542       O561   2.435       .  S
Zr542       O554   2.434       .  S
Zr542       O555   2.423       .  S
Zr542       O548   2.391       .  S
Zr542       O549   2.382       .  S
Zr543       O545   2.435       .  S
Zr543       O567   2.438       .  S
Zr543       O569   2.420       .  S
Zr543       O547   2.387       .  S
Zr543       O550   2.390       .  S
Zr544       O570   2.435       .  S
Zr544       O571   2.435       .  S
Zr544       O546   2.436       .  S
Zr544       O547   2.396       .  S
Zr544       O548   2.417       .  S
O545        H582   0.990       .  S
O546        H577   0.990       .  S
O546        H591   0.990       .  S
O548        H574   0.966       .  S
O549       Zr559   2.385       .  S
O550       Zr559   2.388       .  S
O550        H575   0.967       .  S
C551       C3718   1.482       .  S
C552       C3898   1.478       .  S
C553       C3698   1.473       .  S
O554        H590   0.990       .  S
O555        C557   1.282       .  A
O556        C557   1.288       .  A
C557       C3880   1.489   1_565  S
O558       Zr559   2.440       .  S
O558        H587   0.990       .  S
Zr559       O562   2.438       .  S
Zr559       O563   2.441       .  S
Zr559       O564   2.389       .  S
O560        C565   1.291       .  A
O561        H578   0.990       .  S
O561        H593   0.990       .  S
O562        H579   0.990       .  S
O563        H583   0.990       .  S
O563        H592   0.989       .  S
O564        C565   1.278       .  A
C565       C3734   1.488       .  S
O566        H585   0.991       .  S
O566        H589   0.990       .  S
O567        H581   0.990       .  S
O567        H588   0.990       .  S
O568        C572   1.290       .  A
O569        C572   1.282       .  A
O570        H580   0.990       .  S
O571        H584   0.990       .  S
C572       C3752   1.482       .  S
Zr595       O596   2.441       .  S
Zr595       O597   2.452       .  S
Zr595       O598   2.458       .  S
Zr595       O601   2.425       .  S
Zr595       O603   2.381       .  S
Zr595       O604   2.387       .  S
Zr595       O605   2.407       .  S
Zr595       O606   2.412       .  S
O596        H652   0.990       .  S
O596        H660   0.990       .  S
O597        C617   1.286       .  A
O598        C619   1.288       .  A
O599       Zr609   2.432       .  S
O599        C618   1.286       .  A
O600       Zr608   2.435       .  S
O600        C619   1.284       .  A
O601        C618   1.282       .  A
O602       Zr610   2.398       .  S
O602        C617   1.279       .  A
O603       Zr608   2.391       .  S
O603       Zr610   2.386       .  S
O604       Zr609   2.387       .  S
O604       Zr610   2.375       .  S
O604        H639   0.967       .  S
O605       Zr608   2.399       .  S
O605       Zr625   2.384       .  S
O605        H642   0.964       .  S
O606       Zr609   2.398       .  S
O606       Zr625   2.403       .  S
Zr607       O632   2.440       .  S
Zr607       O626   2.408       .  S
Zr607       O634   2.436       .  S
Zr607       O622   2.434       .  S
Zr607       O613   2.396       .  S
Zr607       O614   2.401       .  S
Zr607       O615   2.379       .  S
Zr607       O616   2.382       .  S
Zr608       O627   2.437       .  S
Zr608       O620   2.435       .  S
Zr608       O621   2.427       .  S
Zr608       O614   2.398       .  S
Zr608       O615   2.390       .  S
Zr609       O611   2.435       .  S
Zr609       O633   2.436       .  S
Zr609       O635   2.441       .  S
Zr609       O613   2.392       .  S
Zr609       O616   2.387       .  S
Zr610       O636   2.436       .  S
Zr610       O637   2.436       .  S
Zr610       O612   2.437       .  S
Zr610       O613   2.395       .  S
Zr610       O614   2.382       .  S
O611        H648   0.990       .  S
O612        H643   0.990       .  S
O612        H657   0.990       .  S
O614        H640   0.965       .  S
O615       Zr625   2.369       .  S
O616       Zr625   2.365       .  S
O616        H641   0.965       .  S
C617       C3662   1.481       .  S
C618       C3808   1.476       .  S
C619       C3754   1.483       .  S
O620        H656   0.990       .  S
O621        C623   1.286       .  A
O622        C623   1.285       .  A
C623       C3826   1.477       .  S
O624       Zr625   2.439       .  S
O624        H653   0.990       .  S
Zr625       O628   2.438       .  S
Zr625       O629   2.438       .  S
Zr625       O630   2.437       .  S
O626        C631   1.279       .  A
O627        H644   0.990       .  S
O627        H659   0.990       .  S
O628        H645   0.990       .  S
O629        H649   0.990       .  S
O629        H658   0.990       .  S
O630        C631   1.285       .  A
C631       C3680   1.472       .  S
O632        H651   0.990       .  S
O632        H655   0.990       .  S
O633        H647   0.990       .  S
O633        H654   0.990       .  S
O634        C638   1.287       .  A
O635        C638   1.286       .  A
O636        H646   0.990       .  S
O637        H650   0.990       .  S
C638       C4040   1.483       .  S
Zr661       O662   2.438       .  S
Zr661       O663   2.420       .  S
Zr661       O664   2.455       .  S
Zr661       O667   2.449       .  S
Zr661       O669   2.383       .  S
Zr661       O670   2.389       .  S
Zr661       O671   2.404       .  S
Zr661       O672   2.398       .  S
O662        H718   0.990       .  S
O662        H726   0.990       .  S
O663        C683   1.282       .  A
O664        C685   1.290       .  A
O665       Zr675   2.426       .  S
O665        C684   1.285       .  A
O666       Zr674   2.432       .  S
O666        C685   1.285       .  A
O667        C684   1.288       .  A
O668       Zr676   2.434       .  S
O668        C683   1.285       .  A
O669       Zr674   2.392       .  S
O669       Zr676   2.368       .  S
O670       Zr675   2.386       .  S
O670       Zr676   2.375       .  S
O670        H705   0.965       .  S
O671       Zr674   2.402       .  S
O671       Zr691   2.400       .  S
O671        H708   0.966       .  S
O672       Zr675   2.395       .  S
O672       Zr691   2.388       .  S
Zr673       O698   2.445       .  S
Zr673       O692   2.443       .  S
Zr673       O700   2.419       .  S
Zr673       O688   2.411       .  S
Zr673       O679   2.397       .  S
Zr673       O680   2.409       .  S
Zr673       O681   2.373       .  S
Zr673       O682   2.378       .  S
Zr674       O693   2.435       .  S
Zr674       O686   2.435       .  S
Zr674       O687   2.457       .  S
Zr674       O680   2.391       .  S
Zr674       O681   2.385       .  S
Zr675       O677   2.436       .  S
Zr675       O699   2.439       .  S
Zr675       O701   2.441       .  S
Zr675       O679   2.381       .  S
Zr675       O682   2.383       .  S
Zr676       O702   2.435       .  S
Zr676       O703   2.435       .  S
Zr676       O678   2.436       .  S
Zr676       O679   2.391       .  S
Zr676       O680   2.409       .  S
O677        H714   0.990       .  S
O678        H709   0.990       .  S
O678        H723   0.990       .  S
O680        H706   0.967       .  S
O681       Zr691   2.371       .  S
O682       Zr691   2.384       .  S
O682        H707   0.964       .  S
C683       C3932   1.473       .  S
C684       C3716   1.486       .  S
C685       C3626   1.486       .  S
O686        H722   0.990       .  S
O687        C689   1.290       .  A
O688        C689   1.280       .  A
C689       C3736   1.478   1_455  S
O690       Zr691   2.438       .  S
O690        H719   0.990       .  S
Zr691       O694   2.437       .  S
Zr691       O695   2.438       .  S
Zr691       O696   2.417       .  S
O692        C697   1.286       .  A
O693        H710   0.990       .  S
O693        H725   0.990       .  S
O694        H711   0.990       .  S
O695        H715   0.990       .  S
O695        H724   0.990       .  S
O696        C697   1.282       .  A
C697       C3914   1.482       .  S
O698        H717   0.990       .  S
O698        H721   0.990       .  S
O699        H713   0.990       .  S
O699        H720   0.990       .  S
O700        C704   1.281       .  A
O701        C704   1.287       .  A
O702        H712   0.990       .  S
O703        H716   0.990       .  S
C704       C3644   1.475       .  S
Zr727       O728   2.441       .  S
Zr727       O729   2.450       .  S
Zr727       O730   2.436       .  S
Zr727       O733   2.405       .  S
Zr727       O735   2.377       .  S
Zr727       O736   2.380       .  S
Zr727       O737   2.404       .  S
Zr727       O738   2.412       .  S
O728        H784   0.990       .  S
O728        H792   0.990       .  S
O729        C749   1.286       .  A
O730        C751   1.283       .  A
O731       Zr741   2.453       .  S
O731        C750   1.289       .  A
O732       Zr740   2.434       .  S
O732        C751   1.285       .  A
O733        C750   1.279       .  A
O734       Zr742   2.410       .  S
O734        C749   1.281       .  A
O735       Zr740   2.392       .  S
O735       Zr742   2.385       .  S
O736       Zr741   2.387       .  S
O736       Zr742   2.372       .  S
O736        H771   0.966       .  S
O737       Zr740   2.396       .  S
O737       Zr757   2.393       .  S
O737        H774   0.964       .  S
O738       Zr741   2.394       .  S
O738       Zr757   2.405       .  S
Zr739       O764   2.441       .  S
Zr739       O758   2.419       .  S
Zr739       O766   2.430       .  S
Zr739       O754   2.437       .  S
Zr739       O745   2.399       .  S
Zr739       O746   2.397       .  S
Zr739       O747   2.378       .  S
Zr739       O748   2.385       .  S
Zr740       O759   2.437       .  S
Zr740       O752   2.435       .  S
Zr740       O753   2.423       .  S
Zr740       O746   2.398       .  S
Zr740       O747   2.387       .  S
Zr741       O743   2.435       .  S
Zr741       O765   2.435       .  S
Zr741       O767   2.444       .  S
Zr741       O745   2.399       .  S
Zr741       O748   2.392       .  S
Zr742       O768   2.435       .  S
Zr742       O769   2.436       .  S
Zr742       O744   2.437       .  S
Zr742       O745   2.395       .  S
Zr742       O746   2.385       .  S
O743        H780   0.990       .  S
O744        H775   0.990       .  S
O744        H789   0.990       .  S
O746        H772   0.965       .  S
O747       Zr757   2.371       .  S
O748       Zr757   2.363       .  S
O748        H773   0.964       .  S
C749       C3790   1.485       .  S
C750       C3664   1.474       .  S
C751       C3646   1.476       .  S
O752        H788   0.990       .  S
O753        C755   1.283       .  A
O754        C755   1.287       .  A
C755       C3682   1.473       .  S
O756       Zr757   2.439       .  S
O756        H785   0.990       .  S
Zr757       O760   2.437       .  S
Zr757       O761   2.441       .  S
Zr757       O762   2.440       .  S
O758        C763   1.281       .  A
O759        H776   0.990       .  S
O759        H791   0.990       .  S
O760        H777   0.990       .  S
O761        H781   0.990       .  S
O761        H790   0.990       .  S
O762        C763   1.286       .  A
C763       C3770   1.479       .  S
O764        H783   0.990       .  S
O764        H787   0.990       .  S
O765        H779   0.990       .  S
O765        H786   0.990       .  S
O766        C770   1.284       .  A
O767        C770   1.288       .  A
O768        H778   0.990       .  S
O769        H782   0.990       .  S
C770       C3952   1.479       .  S
Zr793       O794   2.440       .  S
Zr793       O795   2.443       .  S
Zr793       O796   2.415       .  S
Zr793       O799   2.417       .  S
Zr793       O801   2.379       .  S
Zr793       O802   2.376       .  S
Zr793       O803   2.409       .  S
Zr793       O804   2.398       .  S
O794        H850   0.990       .  S
O794        H858   0.990       .  S
O795        C815   1.286       .  A
O796        C817   1.280       .  A
O797       Zr807   2.423       .  S
O797        C816   1.282       .  A
O798       Zr806   2.455       .  S
O798        C817   1.289       .  A
O799        C816   1.283       .  A
O800       Zr808   2.409       .  S
O800        C815   1.279       .  A
O801       Zr806   2.390       .  S
O801       Zr808   2.373       .  S
O802       Zr807   2.379       .  S
O802       Zr808   2.381       .  S
O802        H837   0.965       .  S
O803       Zr806   2.398       .  S
O803       Zr823   2.410       .  S
O803        H840   0.967       .  S
O804       Zr807   2.385       .  S
O804       Zr823   2.400       .  S
Zr805       O830   2.442       .  S
Zr805       O824   2.420       .  S
Zr805       O832   2.439       .  S
Zr805       O820   2.420       .  S
Zr805       O811   2.391       .  S
Zr805       O812   2.401       .  S
Zr805       O813   2.382       .  S
Zr805       O814   2.379       .  S
Zr806       O825   2.437       .  S
Zr806       O818   2.436       .  S
Zr806       O819   2.442       .  S
Zr806       O812   2.400       .  S
Zr806       O813   2.393       .  S
Zr807       O809   2.435       .  S
Zr807       O831   2.438       .  S
Zr807       O833   2.405       .  S
Zr807       O811   2.392       .  S
Zr807       O814   2.380       .  S
Zr808       O834   2.435       .  S
Zr808       O835   2.435       .  S
Zr808       O810   2.436       .  S
Zr808       O811   2.390       .  S
Zr808       O812   2.390       .  S
O809        H846   0.990       .  S
O810        H841   0.990       .  S
O810        H855   0.990       .  S
O812        H838   0.968       .  S
O813       Zr823   2.368       .  S
O814       Zr823   2.374       .  S
O814        H839   0.967       .  S
C815       C3590   1.471       .  S
C816       C3556   1.469       .  S
C817       C3986   1.478       .  S
O818        H854   0.990       .  S
O819        C821   1.286       .  A
O820        C821   1.284       .  A
C821       C3538   1.479       .  S
O822       Zr823   2.439       .  S
O822        H851   0.990       .  S
Zr823       O826   2.437       .  S
Zr823       O827   2.439       .  S
Zr823       O828   2.450       .  S
O824        C829   1.282       .  A
O825        H842   0.990       .  S
O825        H857   0.990       .  S
O826        H843   0.990       .  S
O827        H847   0.990       .  S
O827        H856   0.990       .  S
O828        C829   1.288       .  A
C829       C3572   1.480       .  S
O830        H849   0.990       .  S
O830        H853   0.990       .  S
O831        H845   0.990       .  S
O831        H852   0.990       .  S
O832        C836   1.286       .  A
O833        C836   1.279       .  A
O834        H844   0.989       .  S
O835        H848   0.990       .  S
C836       C3608   1.463       .  S
Zr859       O860   2.441       .  S
Zr859       O861   2.460       .  S
Zr859       O862   2.445       .  S
Zr859       O865   2.450       .  S
Zr859       O867   2.384       .  S
Zr859       O868   2.378       .  S
Zr859       O869   2.416       .  S
Zr859       O870   2.413       .  S
O860        H916   0.990       .  S
O860        H924   0.990       .  S
O861        C881   1.288       .  A
O862        C883   1.287       .  A
O863       Zr873   2.423       .  S
O863        C882   1.282       .  A
O864       Zr872   2.417       .  S
O864        C883   1.280       .  A
O865        C882   1.288       .  A
O866       Zr874   2.411       .  S
O866        C881   1.281       .  A
O867       Zr872   2.391       .  S
O867       Zr874   2.378       .  S
O868       Zr873   2.384       .  S
O868       Zr874   2.373       .  S
O868        H903   0.965       .  S
O869       Zr872   2.397       .  S
O869       Zr889   2.387       .  S
O869        H906   0.965       .  S
O870       Zr873   2.389       .  S
O870       Zr889   2.411       .  S
Zr871       O896   2.440       .  S
Zr871       O890   2.423       .  S
Zr871       O898   2.448       .  S
Zr871       O886   2.455       .  S
Zr871       O877   2.404       .  S
Zr871       O878   2.407       .  S
Zr871       O879   2.376       .  S
Zr871       O880   2.386       .  S
Zr872       O891   2.437       .  S
Zr872       O884   2.435       .  S
Zr872       O885   2.414       .  S
Zr872       O878   2.395       .  S
Zr872       O879   2.384       .  S
Zr873       O875   2.434       .  S
Zr873       O897   2.437       .  S
Zr873       O899   2.412       .  S
Zr873       O877   2.394       .  S
Zr873       O880   2.388       .  S
Zr874       O900   2.437       .  S
Zr874       O901   2.435       .  S
Zr874       O876   2.437       .  S
Zr874       O877   2.396       .  S
Zr874       O878   2.392       .  S
O875        H912   0.990       .  S
O876        H907   0.990       .  S
O876        H921   0.990       .  S
O878        H904   0.965       .  S
O879       Zr889   2.368       .  S
O880       Zr889   2.367       .  S
O880        H905   0.966       .  S
C881       C3482   1.489       .  S
C882       C3446   1.481       .  S
C883       C3610   1.466       .  S
O884        H920   0.990       .  S
O885        C887   1.281       .  A
O886        C887   1.289       .  A
C887       C3464   1.476       .  S
O888       Zr889   2.438       .  S
O888        H917   0.990       .  S
Zr889       O892   2.439       .  S
Zr889       O893   2.438       .  S
Zr889       O894   2.440       .  S
O890        C895   1.282       .  A
O891        H908   0.990       .  S
O891        H923   0.990       .  S
O892        H909   0.990       .  S
O893        H913   0.990       .  S
O893        H922   0.990       .  S
O894        C895   1.286       .  A
C895       C3500   1.478       .  S
O896        H915   0.990       .  S
O896        H919   0.990       .  S
O897        H911   0.990       .  S
O897        H918   0.990       .  S
O898        C902   1.288       .  A
O899        C902   1.281       .  A
O900        H910   0.990       .  S
O901        H914   0.990       .  S
C902       C3518   1.473       .  S
Zr925       O926   2.438       .  S
Zr925       O927   2.419       .  S
Zr925       O928   2.433       .  S
Zr925       O931   2.413       .  S
Zr925       O933   2.370       .  S
Zr925       O934   2.383       .  S
Zr925       O935   2.396   1_545  S
Zr925       O936   2.401       .  S
O926        H982   0.990       .  S
O926        H990   0.990       .  S
O927        C947   1.281       .  A
O928        C949   1.285       .  A
O929       Zr939   2.446       .  S
O929        C948   1.288       .  A
O930       Zr938   2.410       .  S
O930        C949   1.279   1_565  A
O931        C948   1.282       .  A
O932       Zr940   2.450       .  S
O932        C947   1.288       .  A
O933       Zr938   2.387   1_545  S
O933       Zr940   2.369       .  S
O934       Zr939   2.385       .  S
O934       Zr940   2.369       .  S
O934        H969   0.966       .  S
O935       Zr938   2.392       .  S
O935       Zr955   2.402       .  S
O935        H972   0.966       .  S
O936       Zr939   2.390       .  S
O936       Zr955   2.391   1_545  S
Zr937       O962   2.450       .  S
Zr937       O956   2.445       .  S
Zr937       O964   2.439       .  S
Zr937       O952   2.451       .  S
Zr937       O943   2.406       .  S
Zr937       O944   2.408       .  S
Zr937       O945   2.376       .  S
Zr937       O946   2.390       .  S
Zr938       O957   2.437       .  S
Zr938       O950   2.436       .  S
Zr938       O951   2.409       .  S
Zr938       O944   2.394       .  S
Zr938       O945   2.380       .  S
Zr939       O941   2.434       .  S
Zr939       O963   2.438       .  S
Zr939       O965   2.431       .  S
Zr939       O943   2.393   1_545  S
Zr939       O946   2.395   1_545  S
Zr940       O966   2.436       .  S
Zr940       O967   2.435   1_545  S
Zr940       O942   2.437       .  S
Zr940       O943   2.395   1_545  S
Zr940       O944   2.411   1_545  S
O941        H978   0.990       .  S
O942        H973   0.990       .  S
O942        H987   0.990       .  S
O944        H970   0.967       .  S
O945       Zr955   2.375       .  S
O946       Zr955   2.386       .  S
O946        H971   0.966       .  S
C947       C3430   1.479       .  S
C948       C3592   1.475       .  S
C949       C4312   1.469       .  S
O950        H986   0.990       .  S
O951        C953   1.279       .  A
O952        C953   1.287       .  A
C953       C3574   1.473       .  S
O954       Zr955   2.435       .  S
O954        H983   0.990   1_565  S
Zr955       O958   2.435       .  S
Zr955       O959   2.440       .  S
Zr955       O960   2.422       .  S
O956        C961   1.286       .  A
O957        H974   0.990       .  S
O957        H989   0.990       .  S
O958        H975   0.990       .  S
O959        H979   0.990       .  S
O959        H988   0.989       .  S
O960        C961   1.283       .  A
C961       C3410   1.484       .  S
O962        H981   0.990       .  S
O962        H985   0.990       .  S
O963        H977   0.990       .  S
O963        H984   0.990       .  S
O964        C968   1.285       .  A
O965        C968   1.285   1_545  A
O966        H976   0.990       .  S
O967        H980   0.990       .  S
C968       C3394   1.479       .  S
Zr991       O992   2.442       .  S
Zr991       O993   2.447       .  S
Zr991       O994   2.457       .  S
Zr991       O997   2.433       .  S
Zr991       O999   2.381       .  S
Zr991      O1000   2.389       .  S
Zr991      O1001   2.412       .  S
Zr991      O1002   2.410       .  S
O992       H1048   0.990       .  S
O992       H1056   0.991       .  S
O993       C1013   1.286       .  A
O994       C1015   1.286       .  A
O995      Zr1005   2.439       .  S
O995       C1014   1.285       .  A
O996      Zr1004   2.419       .  S
O996       C1015   1.283   1_565  A
O997       C1014   1.284       .  A
O998      Zr1006   2.402       .  S
O998       C1013   1.277       .  A
O999      Zr1004   2.393   1_545  S
O999      Zr1006   2.385       .  S
O1000     Zr1005   2.392       .  S
O1000     Zr1006   2.382       .  S
O1000      H1035   0.965       .  S
O1001     Zr1004   2.397   1_545  S
O1001     Zr1021   2.390   1_545  S
O1001      H1038   0.965       .  S
O1002     Zr1005   2.390       .  S
O1002     Zr1021   2.397   1_545  S
Zr1003     O1028   2.441       .  S
Zr1003     O1022   2.418       .  S
Zr1003     O1030   2.452       .  S
Zr1003     O1018   2.453       .  S
Zr1003     O1009   2.406       .  S
Zr1003     O1010   2.404       .  S
Zr1003     O1011   2.382       .  S
Zr1003     O1012   2.389       .  S
Zr1004     O1023   2.437       .  S
Zr1004     O1016   2.435       .  S
Zr1004     O1017   2.415       .  S
Zr1004     O1010   2.395       .  S
Zr1004     O1011   2.384       .  S
Zr1005     O1007   2.435       .  S
Zr1005     O1029   2.436       .  S
Zr1005     O1031   2.436       .  S
Zr1005     O1009   2.394   1_545  S
Zr1005     O1012   2.391   1_545  S
Zr1006     O1032   2.435       .  S
Zr1006     O1033   2.435   1_545  S
Zr1006     O1008   2.438   1_545  S
Zr1006     O1009   2.401   1_545  S
Zr1006     O1010   2.379   1_545  S
O1007      H1044   0.990       .  S
O1008      H1039   0.990   1_565  S
O1008      H1053   0.990   1_565  S
O1010      H1036   0.965       .  S
O1011     Zr1021   2.371       .  S
O1012     Zr1021   2.366       .  S
O1012      H1037   0.965       .  S
C1013      C3356   1.471       .  S
C1014      C3484   1.483       .  S
C1015      C3392   1.483       .  S
O1016      H1052   0.990       .  S
O1017      C1019   1.282       .  A
O1018      C1019   1.289       .  A
C1019      C3502   1.474       .  S
O1020     Zr1021   2.438   1_545  S
O1020      H1049   0.990       .  S
Zr1021     O1024   2.437       .  S
Zr1021     O1025   2.440       .  S
Zr1021     O1026   2.436       .  S
O1022      C1027   1.283       .  A
O1023      H1040   0.990       .  S
O1023      H1055   0.990       .  S
O1024      H1041   0.990       .  S
O1025      H1045   0.990       .  S
O1025      H1054   0.990   1_565  S
O1026      C1027   1.284       .  A
C1027      C3340   1.476       .  S
O1028      H1047   0.990       .  S
O1028      H1051   0.990       .  S
O1029      H1043   0.990       .  S
O1029      H1050   0.990       .  S
O1030      C1034   1.289       .  A
O1031      C1034   1.285   1_545  A
O1032      H1042   0.990       .  S
O1033      H1046   0.990       .  S
C1034      C3374   1.483       .  S
Zr1057     O1058   2.438       .  S
Zr1057     O1059   2.410       .  S
Zr1057     O1060   2.443       .  S
Zr1057     O1063   2.441       .  S
Zr1057     O1065   2.381       .  S
Zr1057     O1066   2.387       .  S
Zr1057     O1067   2.405       .  S
Zr1057     O1068   2.395       .  S
O1058      H1114   0.991       .  S
O1058      H1122   0.990       .  S
O1059      C1079   1.279       .  A
O1060      C1081   1.286       .  A
O1061     Zr1071   2.433       .  S
O1061      C1080   1.284       .  A
O1062     Zr1070   2.438   1_655  S
O1062      C1081   1.287       .  A
O1063      C1080   1.287       .  A
O1064     Zr1072   2.429       .  S
O1064      C1079   1.284       .  A
O1065     Zr1070   2.391   1_655  S
O1065     Zr1072   2.365       .  S
O1066     Zr1071   2.390       .  S
O1066     Zr1072   2.381       .  S
O1066      H1101   0.965       .  S
O1067     Zr1070   2.402   1_655  S
O1067     Zr1087   2.398   1_655  S
O1067      H1104   0.968       .  S
O1068     Zr1071   2.392       .  S
O1068     Zr1087   2.386   1_655  S
Zr1069     O1094   2.441       .  S
Zr1069     O1088   2.443       .  S
Zr1069     O1096   2.438       .  S
Zr1069     O1084   2.423       .  S
Zr1069     O1075   2.398   1_455  S
Zr1069     O1076   2.413       .  S
Zr1069     O1077   2.382       .  S
Zr1069     O1078   2.380       .  S
Zr1070     O1089   2.435       .  S
Zr1070     O1082   2.434       .  S
Zr1070     O1083   2.447       .  S
Zr1070     O1076   2.401       .  S
Zr1070     O1077   2.389       .  S
Zr1071     O1073   2.435       .  S
Zr1071     O1095   2.439       .  S
Zr1071     O1097   2.442       .  S
Zr1071     O1075   2.387       .  S
Zr1071     O1078   2.387   1_655  S
Zr1072     O1098   2.434       .  S
Zr1072     O1099   2.435       .  S
Zr1072     O1074   2.438       .  S
Zr1072     O1075   2.392       .  S
Zr1072     O1076   2.402   1_655  S
O1073      H1110   0.990       .  S
O1074      H1105   0.990       .  S
O1074      H1119   0.990       .  S
O1076      H1102   0.966       .  S
O1077     Zr1087   2.374       .  S
O1078     Zr1087   2.390       .  S
O1078      H1103   0.966       .  S
C1079      C3554   1.469       .  S
C1080      C3428   1.481       .  S
C1081      C4112   1.487       .  S
O1082      H1118   0.990       .  S
O1083      C1085   1.286       .  A
O1084      C1085   1.282       .  A
C1085      C3412   1.485       .  S
O1086     Zr1087   2.439       .  S
O1086      H1115   0.990       .  S
Zr1087     O1090   2.437       .  S
Zr1087     O1091   2.440       .  S
Zr1087     O1092   2.406       .  S
O1088      C1093   1.285       .  A
O1089      H1106   0.990       .  S
O1089      H1121   0.990       .  S
O1090      H1107   0.990       .  S
O1091      H1111   0.991       .  S
O1091      H1120   0.990       .  S
O1092      C1093   1.280       .  A
C1093      C3536   1.481       .  S
O1094      H1113   0.990       .  S
O1094      H1117   0.990       .  S
O1095      H1109   0.990       .  S
O1095      H1116   0.990       .  S
O1096      C1100   1.285       .  A
O1097      C1100   1.287   1_655  A
O1098      H1108   0.990       .  S
O1099      H1112   0.990   1_655  S
C1100      C3320   1.484       .  S
Zr1123     O1124   2.440       .  S
Zr1123     O1125   2.436       .  S
Zr1123     O1126   2.428       .  S
Zr1123     O1129   2.414       .  S
Zr1123     O1131   2.378       .  S
Zr1123     O1132   2.378       .  S
Zr1123     O1133   2.406   1_655  S
Zr1123     O1134   2.407       .  S
O1124      H1180   0.991       .  S
O1124      H1188   0.990       .  S
O1125      C1145   1.283       .  A
O1126      C1147   1.282       .  A
O1127     Zr1137   2.441       .  S
O1127      C1146   1.287       .  A
O1128     Zr1136   2.453       .  S
O1128      C1147   1.287   1_455  A
O1129      C1146   1.281       .  A
O1130     Zr1138   2.429       .  S
O1130      C1145   1.284       .  A
O1131     Zr1136   2.391   1_655  S
O1131     Zr1138   2.383       .  S
O1132     Zr1137   2.388       .  S
O1132     Zr1138   2.367       .  S
O1132      H1167   0.967       .  S
O1133     Zr1136   2.396       .  S
O1133     Zr1153   2.393       .  S
O1133      H1170   0.965       .  S
O1134     Zr1137   2.393       .  S
O1134     Zr1153   2.403   1_655  S
Zr1135     O1160   2.440       .  S
Zr1135     O1154   2.424       .  S
Zr1135     O1162   2.451       .  S
Zr1135     O1150   2.433       .  S
Zr1135     O1141   2.402   1_455  S
Zr1135     O1142   2.409       .  S
Zr1135     O1143   2.382       .  S
Zr1135     O1144   2.382       .  S
Zr1136     O1155   2.437       .  S
Zr1136     O1148   2.435       .  S
Zr1136     O1149   2.431       .  S
Zr1136     O1142   2.404       .  S
Zr1136     O1143   2.390       .  S
Zr1137     O1139   2.435       .  S
Zr1137     O1161   2.436       .  S
Zr1137     O1163   2.437       .  S
Zr1137     O1141   2.396       .  S
Zr1137     O1144   2.392   1_655  S
Zr1138     O1164   2.436       .  S
Zr1138     O1165   2.436       .  S
Zr1138     O1140   2.436       .  S
Zr1138     O1141   2.403       .  S
Zr1138     O1142   2.394   1_655  S
O1139      H1176   0.990       .  S
O1140      H1171   0.991       .  S
O1140      H1185   0.990       .  S
O1142      H1168   0.966       .  S
O1143     Zr1153   2.370       .  S
O1144     Zr1153   2.367       .  S
O1144      H1169   0.965       .  S
C1145      C3448   1.483       .  S
C1146      C3358   1.475       .  S
C1147      C3322   1.479       .  S
O1148      H1184   0.990       .  S
O1149      C1151   1.286       .  A
O1150      C1151   1.285       .  A
C1151      C3338   1.478       .  S
O1152     Zr1153   2.438       .  S
O1152      H1181   0.990       .  S
Zr1153     O1156   2.435       .  S
Zr1153     O1157   2.439       .  S
Zr1153     O1158   2.445       .  S
O1154      C1159   1.282       .  A
O1155      H1172   0.990       .  S
O1155      H1187   0.990       .  S
O1156      H1173   0.990       .  S
O1157      H1177   0.990       .  S
O1157      H1186   0.990       .  S
O1158      C1159   1.287       .  A
C1159      C3466   1.482       .  S
O1160      H1179   0.990       .  S
O1160      H1183   0.990       .  S
O1161      H1175   0.990       .  S
O1161      H1182   0.990       .  S
O1162      C1166   1.289       .  A
O1163      C1166   1.286   1_655  A
O1164      H1174   0.990       .  S
O1165      H1178   0.990       .  S
C1166      C3302   1.485       .  S
Zr1189     O1190   2.439       .  S
Zr1189     O1191   2.438       .  S
Zr1189     O1192   2.448       .  S
Zr1189     O1195   2.447       .  S
Zr1189     O1197   2.386       .  S
Zr1189     O1198   2.385       .  S
Zr1189     O1199   2.410       .  S
Zr1189     O1200   2.400       .  S
O1190      H1246   0.990       .  S
O1190      H1254   0.990       .  S
O1191      C1211   1.286       .  A
O1192      C1213   1.288       .  A
O1193     Zr1203   2.419       .  S
O1193      C1212   1.282       .  A
O1194     Zr1202   2.422       .  S
O1194      C1213   1.283       .  A
O1195      C1212   1.288       .  A
O1196     Zr1204   2.422       .  S
O1196      C1211   1.282       .  A
O1197     Zr1202   2.392       .  S
O1197     Zr1204   2.368       .  S
O1198     Zr1203   2.382       .  S
O1198     Zr1204   2.377       .  S
O1198      H1233   0.964       .  S
O1199     Zr1202   2.397       .  S
O1199     Zr1219   2.399       .  S
O1199      H1236   0.967       .  S
O1200     Zr1203   2.385       .  S
O1200     Zr1219   2.388       .  S
Zr1201     O1226   2.443       .  S
Zr1201     O1220   2.440       .  S
Zr1201     O1228   2.449       .  S
Zr1201     O1216   2.423       .  S
Zr1201     O1207   2.393       .  S
Zr1201     O1208   2.411       .  S
Zr1201     O1209   2.381       .  S
Zr1201     O1210   2.384       .  S
Zr1202     O1221   2.436       .  S
Zr1202     O1214   2.435       .  S
Zr1202     O1215   2.437       .  S
Zr1202     O1208   2.392       .  S
Zr1202     O1209   2.386       .  S
Zr1203     O1205   2.436       .  S
Zr1203     O1227   2.440       .  S
Zr1203     O1229   2.413       .  S
Zr1203     O1207   2.386       .  S
Zr1203     O1210   2.393       .  S
Zr1204     O1230   2.435       .  S
Zr1204     O1231   2.434       .  S
Zr1204     O1206   2.437       .  S
Zr1204     O1207   2.385       .  S
Zr1204     O1208   2.398       .  S
O1205      H1242   0.990       .  S
O1206      H1237   0.990       .  S
O1206      H1251   0.990       .  S
O1208      H1234   0.965       .  S
O1209     Zr1219   2.376       .  S
O1210     Zr1219   2.390       .  S
O1210      H1235   0.965       .  S
C1211      C3230   1.472       .  S
C1212      C3194   1.473       .  S
C1213      C3286   1.478       .  S
O1214      H1250   0.990       .  S
O1215      C1217   1.286       .  A
O1216      C1217   1.281       .  A
C1217      C3214   1.476       .  S
O1218     Zr1219   2.439       .  S
O1218      H1247   0.990       .  S
Zr1219     O1222   2.438       .  S
Zr1219     O1223   2.439       .  S
Zr1219     O1224   2.414       .  S
O1220      C1225   1.284       .  A
O1221      H1238   0.990       .  S
O1221      H1253   0.990       .  S
O1222      H1239   0.990       .  S
O1223      H1243   0.990       .  S
O1223      H1252   0.990       .  S
O1224      C1225   1.282       .  A
C1225      C3248   1.481       .  S
O1226      H1245   0.990       .  S
O1226      H1249   0.990       .  S
O1227      H1241   0.990       .  S
O1227      H1248   0.990       .  S
O1228      C1232   1.285       .  A
O1229      C1232   1.281       .  A
O1230      H1240   0.990       .  S
O1231      H1244   0.990       .  S
C1232      C3266   1.475       .  S
Zr1255     O1256   2.441       .  S
Zr1255     O1257   2.419       .  S
Zr1255     O1258   2.436       .  S
Zr1255     O1261   2.409       .  S
Zr1255     O1263   2.377       .  S
Zr1255     O1264   2.384       .  S
Zr1255     O1265   2.396       .  S
Zr1255     O1266   2.403       .  S
O1256      H1312   0.991       .  S
O1256      H1320   0.990       .  S
O1257      C1277   1.281       .  A
O1258      C1279   1.283       .  A
O1259     Zr1269   2.460       .  S
O1259      C1278   1.290       .  A
O1260     Zr1268   2.423       .  S
O1260      C1279   1.284       .  A
O1261      C1278   1.282       .  A
O1262     Zr1270   2.437       .  S
O1262      C1277   1.285       .  A
O1263     Zr1268   2.389       .  S
O1263     Zr1270   2.380       .  S
O1264     Zr1269   2.394       .  S
O1264     Zr1270   2.367       .  S
O1264      H1299   0.965       .  S
O1265     Zr1268   2.396       .  S
O1265     Zr1285   2.383       .  S
O1265      H1302   0.965       .  S
O1266     Zr1269   2.400       .  S
O1266     Zr1285   2.393       .  S
Zr1267     O1292   2.442       .  S
Zr1267     O1286   2.446       .  S
Zr1267     O1294   2.426       .  S
Zr1267     O1282   2.444       .  S
Zr1267     O1273   2.410       .  S
Zr1267     O1274   2.404       .  S
Zr1267     O1275   2.374       .  S
Zr1267     O1276   2.385       .  S
Zr1268     O1287   2.436       .  S
Zr1268     O1280   2.436       .  S
Zr1268     O1281   2.422       .  S
Zr1268     O1274   2.394       .  S
Zr1268     O1275   2.385       .  S
Zr1269     O1271   2.434       .  S
Zr1269     O1293   2.435       .  S
Zr1269     O1295   2.460       .  S
Zr1269     O1273   2.398       .  S
Zr1269     O1276   2.392       .  S
Zr1270     O1296   2.438       .  S
Zr1270     O1297   2.435       .  S
Zr1270     O1272   2.436       .  S
Zr1270     O1273   2.405       .  S
Zr1270     O1274   2.400       .  S
O1271      H1308   0.990       .  S
O1272      H1303   0.990       .  S
O1272      H1317   0.990       .  S
O1274      H1300   0.965       .  S
O1275     Zr1285   2.380       .  S
O1276     Zr1285   2.365       .  S
O1276      H1301   0.965       .  S
C1277      C3160   1.476       .  S
C1278      C3124   1.484   1_455  S
C1279      C3268   1.477       .  S
O1280      H1316   0.990       .  S
O1281      C1283   1.283       .  A
O1282      C1283   1.287       .  A
C1283      C3142   1.477       .  S
O1284     Zr1285   2.438       .  S
O1284      H1313   0.990       .  S
Zr1285     O1288   2.436       .  S
Zr1285     O1289   2.439       .  S
Zr1285     O1290   2.413       .  S
O1286      C1291   1.288       .  A
O1287      H1304   0.990       .  S
O1287      H1319   0.990       .  S
O1288      H1305   0.990       .  S
O1289      H1309   0.990       .  S
O1289      H1318   0.990       .  S
O1290      C1291   1.280       .  A
C1291      C3176   1.476       .  S
O1292      H1311   0.990       .  S
O1292      H1315   0.990       .  S
O1293      H1307   0.990       .  S
O1293      H1314   0.990       .  S
O1294      C1298   1.284       .  A
O1295      C1298   1.291       .  A
O1296      H1306   0.990       .  S
O1297      H1310   0.990       .  S
C1298      C3304   1.483       .  S
Zr1321     O1322   2.439       .  S
Zr1321     O1323   2.408       .  S
Zr1321     O1324   2.454       .  S
Zr1321     O1327   2.423       .  S
Zr1321     O1329   2.375       .  S
Zr1321     O1330   2.391       .  S
Zr1321     O1331   2.394       .  S
Zr1321     O1332   2.398       .  S
O1322      H1378   0.990       .  S
O1322      H1386   0.990       .  S
O1323      C1343   1.279       .  A
O1324      C1345   1.289       .  A
O1325     Zr1335   2.438       .  S
O1325      C1344   1.287       .  A
O1326     Zr1334   2.425       .  S
O1326      C1345   1.283       .  A
O1327      C1344   1.283       .  A
O1328     Zr1336   2.445       .  S
O1328      C1343   1.286       .  A
O1329     Zr1334   2.390       .  S
O1329     Zr1336   2.371       .  S
O1330     Zr1335   2.392       .  S
O1330     Zr1336   2.373       .  S
O1330      H1365   0.966       .  S
O1331     Zr1334   2.397       .  S
O1331     Zr1351   2.395       .  S
O1331      H1368   0.967       .  S
O1332     Zr1335   2.395       .  S
O1332     Zr1351   2.381       .  S
Zr1333     O1358   2.442       .  S
Zr1333     O1352   2.465       .  S
Zr1333     O1360   2.447       .  S
Zr1333     O1348   2.434       .  S
Zr1333     O1339   2.403       .  S
Zr1333     O1340   2.422       .  S
Zr1333     O1341   2.378       .  S
Zr1333     O1342   2.383       .  S
Zr1334     O1353   2.435       .  S
Zr1334     O1346   2.435       .  S
Zr1334     O1347   2.428       .  S
Zr1334     O1340   2.401       .  S
Zr1334     O1341   2.396       .  S
Zr1335     O1337   2.435       .  S
Zr1335     O1359   2.438       .  S
Zr1335     O1361   2.447       .  S
Zr1335     O1339   2.383       .  S
Zr1335     O1342   2.398       .  S
Zr1336     O1362   2.435       .  S
Zr1336     O1363   2.435       .  S
Zr1336     O1338   2.437       .  S
Zr1336     O1339   2.393       .  S
Zr1336     O1340   2.409       .  S
O1337      H1374   0.990       .  S
O1338      H1369   0.990       .  S
O1338      H1383   0.990       .  S
O1340      H1366   0.966       .  S
O1341     Zr1351   2.382       .  S
O1342     Zr1351   2.392       .  S
O1342      H1367   0.965       .  S
C1343      C3068   1.473   1_455  S
C1344      C3232   1.478       .  S
C1345      C3106   1.485       .  S
O1346      H1382   0.990       .  S
O1347      C1349   1.284       .  A
O1348      C1349   1.282       .  A
C1349      C3250   1.476       .  S
O1350     Zr1351   2.438       .  S
O1350      H1379   0.990       .  S
Zr1351     O1354   2.438       .  S
Zr1351     O1355   2.439       .  S
Zr1351     O1356   2.393       .  S
O1352      C1357   1.288       .  A
O1353      H1370   0.990       .  S
O1353      H1385   0.990       .  S
O1354      H1371   0.990       .  S
O1355      H1375   0.990       .  S
O1355      H1384   0.990       .  S
O1356      C1357   1.275       .  A
C1357      C3050   1.475       .  S
O1358      H1377   0.991       .  S
O1358      H1381   0.990       .  S
O1359      H1373   0.990       .  S
O1359      H1380   0.990       .  S
O1360      C1364   1.286       .  A
O1361      C1364   1.287       .  A
O1362      H1372   0.990       .  S
O1363      H1376   0.990       .  S
C1364      C3086   1.487       .  S
Zr1387     O1388   2.441       .  S
Zr1387     O1389   2.454       .  S
Zr1387     O1390   2.461       .  S
Zr1387     O1393   2.441       .  S
Zr1387     O1395   2.384       .  S
Zr1387     O1396   2.387       .  S
Zr1387     O1397   2.411       .  S
Zr1387     O1398   2.413       .  S
O1388      H1444   0.990       .  S
O1388      H1452   0.990       .  S
O1389      C1409   1.287       .  A
O1390      C1411   1.288       .  A
O1391     Zr1401   2.421       .  S
O1391      C1410   1.282       .  A
O1392     Zr1400   2.445       .  S
O1392      C1411   1.287       .  A
O1393      C1410   1.287       .  A
O1394     Zr1402   2.413       .  S
O1394      C1409   1.281       .  A
O1395     Zr1400   2.400       .  S
O1395     Zr1402   2.387       .  S
O1396     Zr1401   2.397       .  S
O1396     Zr1402   2.377       .  S
O1396      H1431   0.966       .  S
O1397     Zr1400   2.406       .  S
O1397     Zr1417   2.390       .  S
O1397      H1434   0.964       .  S
O1398     Zr1401   2.398       .  S
O1398     Zr1417   2.400       .  S
Zr1399     O1424   2.440       .  S
Zr1399     O1418   2.415       .  S
Zr1399     O1426   2.425       .  S
Zr1399     O1414   2.413       .  S
Zr1399     O1405   2.392       .  S
Zr1399     O1406   2.398       .  S
Zr1399     O1407   2.377       .  S
Zr1399     O1408   2.376       .  S
Zr1400     O1419   2.437       .  S
Zr1400     O1412   2.435       .  S
Zr1400     O1413   2.453       .  S
Zr1400     O1406   2.396       .  S
Zr1400     O1407   2.389       .  S
Zr1401     O1403   2.435       .  S
Zr1401     O1425   2.437       .  S
Zr1401     O1427   2.450       .  S
Zr1401     O1405   2.388       .  S
Zr1401     O1408   2.382       .  S
Zr1402     O1428   2.435       .  S
Zr1402     O1429   2.437       .  S
Zr1402     O1404   2.437       .  S
Zr1402     O1405   2.398       .  S
Zr1402     O1406   2.389       .  S
O1403      H1440   0.990       .  S
O1404      H1435   0.990       .  S
O1404      H1449   0.990       .  S
O1406      H1432   0.964       .  S
O1407     Zr1417   2.371       .  S
O1408     Zr1417   2.369       .  S
O1408      H1433   0.965       .  S
C1409      C3014   1.486       .  S
C1410      C3158   1.477       .  S
C1411      C3088   1.492       .  S
O1412      H1448   0.990       .  S
O1413      C1415   1.289       .  A
O1414      C1415   1.281       .  A
C1415      C3178   1.473       .  S
O1416     Zr1417   2.439       .  S
O1416      H1445   0.990       .  S
Zr1417     O1420   2.437       .  S
Zr1417     O1421   2.439       .  S
Zr1417     O1422   2.435       .  S
O1418      C1423   1.281       .  A
O1419      H1436   0.990       .  S
O1419      H1451   0.990       .  S
O1420      H1437   0.990       .  S
O1421      H1441   0.990       .  S
O1421      H1450   0.990       .  S
O1422      C1423   1.285       .  A
C1423      C3032   1.473       .  S
O1424      H1443   0.990       .  S
O1424      H1447   0.990       .  S
O1425      H1439   0.990       .  S
O1425      H1446   0.990       .  S
O1426      C1430   1.283       .  A
O1427      C1430   1.288       .  A
O1428      H1438   0.990       .  S
O1429      H1442   0.990       .  S
C1430      C3376   1.481       .  S
Zr1453     O1454   2.439       .  S
Zr1453     O1455   2.411       .  S
Zr1453     O1456   2.436       .  S
Zr1453     O1459   2.444       .  S
Zr1453     O1461   2.383       .  S
Zr1453     O1462   2.387       .  S
Zr1453     O1463   2.402       .  S
Zr1453     O1464   2.393       .  S
O1454      H1510   0.990       .  S
O1454      H1518   0.990       .  S
O1455      C1475   1.280       .  A
O1456      C1477   1.286       .  A
O1457     Zr1467   2.418       .  S
O1457      C1476   1.283       .  A
O1458     Zr1466   2.446       .  S
O1458      C1477   1.288       .  A
O1459      C1476   1.287       .  A
O1460     Zr1468   2.449       .  S
O1460      C1475   1.288       .  A
O1461     Zr1466   2.393       .  S
O1461     Zr1468   2.365       .  S
O1462     Zr1467   2.390       .  S
O1462     Zr1468   2.373       .  S
O1462      H1497   0.965       .  S
O1463     Zr1466   2.405       .  S
O1463     Zr1483   2.396       .  S
O1463      H1500   0.968       .  S
O1464     Zr1467   2.395       .  S
O1464     Zr1483   2.385       .  S
Zr1465     O1490   2.445       .  S
Zr1465     O1484   2.449       .  S
Zr1465     O1492   2.434       .  S
Zr1465     O1480   2.403       .  S
Zr1465     O1471   2.397       .  S
Zr1465     O1472   2.414       .  S
Zr1465     O1473   2.377       .  S
Zr1465     O1474   2.375       .  S
Zr1466     O1485   2.435       .  S
Zr1466     O1478   2.436       .  S
Zr1466     O1479   2.466       .  S
Zr1466     O1472   2.396       .  S
Zr1466     O1473   2.386       .  S
Zr1467     O1469   2.435       .  S
Zr1467     O1491   2.439       .  S
Zr1467     O1493   2.443       .  S
Zr1467     O1471   2.382       .  S
Zr1467     O1474   2.382       .  S
Zr1468     O1494   2.435       .  S
Zr1468     O1495   2.434       .  S
Zr1468     O1470   2.436       .  S
Zr1468     O1471   2.395       .  S
Zr1468     O1472   2.411       .  S
O1469      H1506   0.990       .  S
O1470      H1501   0.990       .  S
O1470      H1515   0.990       .  S
O1472      H1498   0.966       .  S
O1473     Zr1483   2.372       .  S
O1474     Zr1483   2.388       .  S
O1474      H1499   0.965       .  S
C1475      C3196   1.477       .  S
C1476      C3070   1.481       .  S
C1477      C2978   1.482       .  S
O1478      H1514   0.990       .  S
O1479      C1481   1.291       .  A
O1480      C1481   1.278       .  A
C1481      C3052   1.476       .  S
O1482     Zr1483   2.435       .  S
O1482      H1511   0.990       .  S
Zr1483     O1486   2.436       .  S
Zr1483     O1487   2.438       .  S
Zr1483     O1488   2.406       .  S
O1484      C1489   1.287       .  A
O1485      H1502   0.990       .  S
O1485      H1517   0.990       .  S
O1486      H1503   0.990       .  S
O1487      H1507   0.990       .  S
O1487      H1516   0.990       .  S
O1488      C1489   1.281       .  A
C1489      C3212   1.482       .  S
O1490      H1509   0.990       .  S
O1490      H1513   0.990       .  S
O1491      H1505   0.990       .  S
O1491      H1512   0.990       .  S
O1492      C1496   1.285       .  A
O1493      C1496   1.287       .  A
O1494      H1504   0.990       .  S
O1495      H1508   0.990       .  S
C1496      C2996   1.483       .  S
Zr1519     O1520   2.441       .  S
Zr1519     O1521   2.466       .  S
Zr1519     O1522   2.452       .  S
Zr1519     O1525   2.419       .  S
Zr1519     O1527   2.380       .  S
Zr1519     O1528   2.382       .  S
Zr1519     O1529   2.411       .  S
Zr1519     O1530   2.418       .  S
O1520      H1576   0.990       .  S
O1520      H1584   0.990       .  S
O1521      C1541   1.289       .  A
O1522      C1543   1.286       .  A
O1523     Zr1533   2.455       .  S
O1523      C1542   1.288       .  A
O1524     Zr1532   2.428       .  S
O1524      C1543   1.284       .  A
O1525      C1542   1.283       .  A
O1526     Zr1534   2.398       .  S
O1526      C1541   1.279       .  A
O1527     Zr1532   2.396       .  S
O1527     Zr1534   2.386       .  S
O1528     Zr1533   2.388       .  S
O1528     Zr1534   2.373       .  S
O1528      H1563   0.966       .  S
O1529     Zr1532   2.396       .  S
O1529     Zr1549   2.394       .  S
O1529      H1566   0.964       .  S
O1530     Zr1533   2.396       .  S
O1530     Zr1549   2.412       .  S
Zr1531     O1556   2.443       .  S
Zr1531     O1550   2.414       .  S
Zr1531     O1558   2.429       .  S
Zr1531     O1546   2.440       .  S
Zr1531     O1537   2.399       .  S
Zr1531     O1538   2.393       .  S
Zr1531     O1539   2.378       .  S
Zr1531     O1540   2.386       .  S
Zr1532     O1551   2.438       .  S
Zr1532     O1544   2.434       .  S
Zr1532     O1545   2.426       .  S
Zr1532     O1538   2.395       .  S
Zr1532     O1539   2.388       .  S
Zr1533     O1535   2.435       .  S
Zr1533     O1557   2.437       .  S
Zr1533     O1559   2.446       .  S
Zr1533     O1537   2.400       .  S
Zr1533     O1540   2.392       .  S
Zr1534     O1560   2.437       .  S
Zr1534     O1561   2.434       .  S
Zr1534     O1536   2.437       .  S
Zr1534     O1537   2.394       .  S
Zr1534     O1538   2.376       .  S
O1535      H1572   0.990       .  S
O1536      H1567   0.990       .  S
O1536      H1581   0.990       .  S
O1538      H1564   0.965       .  S
O1539     Zr1549   2.370       .  S
O1540     Zr1549   2.363       .  S
O1540      H1565   0.965       .  S
C1541      C3122   1.490       .  S
C1542      C3016   1.487       .  S
C1543      C2998   1.484       .  S
O1544      H1580   0.990       .  S
O1545      C1547   1.283       .  A
O1546      C1547   1.288       .  A
C1547      C3034   1.477       .  S
O1548     Zr1549   2.438       .  S
O1548      H1577   0.991       .  S
Zr1549     O1552   2.437       .  S
Zr1549     O1553   2.439       .  S
Zr1549     O1554   2.449       .  S
O1550      C1555   1.280       .  A
O1551      H1568   0.990       .  S
O1551      H1583   0.990       .  S
O1552      H1569   0.990       .  S
O1553      H1573   0.990       .  S
O1553      H1582   0.990       .  S
O1554      C1555   1.288       .  A
C1555      C3140   1.478       .  S
O1556      H1575   0.990       .  S
O1556      H1579   0.990       .  S
O1557      H1571   0.990       .  S
O1557      H1578   0.990       .  S
O1558      C1562   1.284       .  A
O1559      C1562   1.289       .  A
O1560      H1570   0.990       .  S
O1561      H1574   0.990       .  S
C1562      C3520   1.479       .  S
Zr1585     O1586   2.439       .  S
Zr1585     O1587   2.424       .  S
Zr1585     O1588   2.423       .  S
Zr1585     O1591   2.415       .  S
Zr1585     O1593   2.378       .  S
Zr1585     O1594   2.384       .  S
Zr1585     O1595   2.400       .  S
Zr1585     O1596   2.399       .  S
O1586      H1642   0.990       .  S
O1586      H1650   0.990       .  S
O1587      C1607   1.282       .  A
O1588      C1609   1.282       .  A
O1589     Zr1599   2.445       .  S
O1589      C1608   1.287       .  A
O1590     Zr1598   2.461       .  S
O1590      C1609   1.289       .  A
O1591      C1608   1.281       .  A
O1592     Zr1600   2.420       .  S
O1592      C1607   1.283       .  A
O1593     Zr1598   2.384       .  S
O1593     Zr1600   2.371       .  S
O1594     Zr1599   2.390       .  S
O1594     Zr1600   2.379       .  S
O1594      H1629   0.966       .  S
O1595     Zr1598   2.397       .  S
O1595     Zr1615   2.402       .  S
O1595      H1632   0.967       .  S
O1596     Zr1599   2.389       .  S
O1596     Zr1615   2.392       .  S
Zr1597     O1622   2.442       .  S
Zr1597     O1616   2.445       .  S
Zr1597     O1624   2.460       .  S
Zr1597     O1612   2.439       .  S
Zr1597     O1603   2.391       .  S
Zr1597     O1604   2.418       .  S
Zr1597     O1605   2.387       .  S
Zr1597     O1606   2.390       .  S
Zr1598     O1617   2.436       .  S
Zr1598     O1610   2.436       .  S
Zr1598     O1611   2.423       .  S
Zr1598     O1604   2.405       .  S
Zr1598     O1605   2.402       .  S
Zr1599     O1601   2.435       .  S
Zr1599     O1623   2.438       .  S
Zr1599     O1625   2.436       .  S
Zr1599     O1603   2.387       .  S
Zr1599     O1606   2.390       .  S
Zr1600     O1626   2.435       .  S
Zr1600     O1627   2.435       .  S
Zr1600     O1602   2.435       .  S
Zr1600     O1603   2.378       .  S
Zr1600     O1604   2.403       .  S
O1601      H1638   0.990       .  S
O1602      H1633   0.990       .  S
O1602      H1647   0.990       .  S
O1604      H1630   0.966       .  S
O1605     Zr1615   2.378       .  S
O1606     Zr1615   2.390       .  S
O1606      H1631   0.966       .  S
C1607      C2890   1.473       .  S
C1608      C2924   1.477       .  S
C1609      C3104   1.483       .  S
O1610      H1646   0.990       .  S
O1611      C1613   1.283       .  A
O1612      C1613   1.283       .  A
C1613      C2942   1.478       .  S
O1614     Zr1615   2.439       .  S
O1614      H1643   0.990       .  S
Zr1615     O1618   2.436       .  S
Zr1615     O1619   2.439       .  S
Zr1615     O1620   2.408       .  S
O1616      C1621   1.284       .  A
O1617      H1634   0.990       .  S
O1617      H1649   0.990       .  S
O1618      H1635   0.990       .  S
O1619      H1639   0.990       .  S
O1619      H1648   0.990       .  S
O1620      C1621   1.280       .  A
C1621      C2906   1.478       .  S
O1622      H1641   0.991       .  S
O1622      H1645   0.990       .  S
O1623      H1637   0.990       .  S
O1623      H1644   0.990       .  S
O1624      C1628   1.290       .  A
O1625      C1628   1.284       .  A
O1626      H1636   0.990       .  S
O1627      H1640   0.990       .  S
C1628      C2962   1.484       .  S
Zr1651     O1652   2.441       .  S
Zr1651     O1653   2.449       .  S
Zr1651     O1654   2.461       .  S
Zr1651     O1657   2.439       .  S
Zr1651     O1659   2.385       .  S
Zr1651     O1660   2.388       .  S
Zr1651     O1661   2.411       .  S
Zr1651     O1662   2.410       .  S
O1652      H1708   0.990       .  S
O1652      H1716   0.990       .  S
O1653      C1673   1.285       .  A
O1654      C1675   1.288       .  A
O1655     Zr1665   2.425       .  S
O1655      C1674   1.283       .  A
O1656     Zr1664   2.426       .  S
O1656      C1675   1.282       .  A
O1657      C1674   1.286       .  A
O1658     Zr1666   2.407       .  S
O1658      C1673   1.281       .  A
O1659     Zr1664   2.392       .  S
O1659     Zr1666   2.382       .  S
O1660     Zr1665   2.387       .  S
O1660     Zr1666   2.377       .  S
O1660      H1695   0.965       .  S
O1661     Zr1664   2.397       .  S
O1661     Zr1681   2.389       .  S
O1661      H1698   0.965       .  S
O1662     Zr1665   2.391       .  S
O1662     Zr1681   2.400       .  S
Zr1663     O1688   2.440       .  S
Zr1663     O1682   2.407       .  S
Zr1663     O1690   2.458       .  S
Zr1663     O1678   2.452       .  S
Zr1663     O1669   2.401       .  S
Zr1663     O1670   2.404       .  S
Zr1663     O1671   2.384       .  S
Zr1663     O1672   2.384       .  S
Zr1664     O1683   2.437       .  S
Zr1664     O1676   2.435       .  S
Zr1664     O1677   2.423       .  S
Zr1664     O1670   2.396       .  S
Zr1664     O1671   2.387       .  S
Zr1665     O1667   2.435       .  S
Zr1665     O1689   2.437       .  S
Zr1665     O1691   2.429       .  S
Zr1665     O1669   2.392       .  S
Zr1665     O1672   2.382       .  S
Zr1666     O1692   2.436       .  S
Zr1666     O1693   2.436       .  S
Zr1666     O1668   2.439       .  S
Zr1666     O1669   2.398       .  S
Zr1666     O1670   2.383       .  S
O1667      H1704   0.990       .  S
O1668      H1699   0.990       .  S
O1668      H1713   0.990       .  S
O1670      H1696   0.965       .  S
O1671     Zr1681   2.374       .  S
O1672     Zr1681   2.367       .  S
O1672      H1697   0.965       .  S
C1673      C2834   1.484       .  S
C1674      C2798   1.478       .  S
C1675      C2960   1.481       .  S
O1676      H1712   0.990       .  S
O1677      C1679   1.284       .  A
O1678      C1679   1.289       .  A
C1679      C2818   1.477       .  S
O1680     Zr1681   2.439       .  S
O1680      H1709   0.990       .  S
Zr1681     O1684   2.437       .  S
Zr1681     O1685   2.439       .  S
Zr1681     O1686   2.440       .  S
O1682      C1687   1.279       .  A
O1683      H1700   0.990       .  S
O1683      H1715   0.990       .  S
O1684      H1701   0.990       .  S
O1685      H1705   0.990       .  S
O1685      H1714   0.990       .  S
O1686      C1687   1.286       .  A
C1687      C2852   1.472       .  S
O1688      H1707   0.990       .  S
O1688      H1711   0.990       .  S
O1689      H1703   0.990       .  S
O1689      H1710   0.990       .  S
O1690      C1694   1.290       .  A
O1691      C1694   1.284       .  A
O1692      H1702   0.990       .  S
O1693      H1706   0.990       .  S
C1694      C2872   1.485       .  S
Zr1717     O1718   2.440       .  S
Zr1717     O1719   2.411       .  S
Zr1717     O1720   2.420       .  S
Zr1717     O1723   2.423       .  S
Zr1717     O1725   2.378       .  S
Zr1717     O1726   2.382       .  S
Zr1717     O1727   2.397       .  S
Zr1717     O1728   2.386       .  S
O1718      H1774   0.990       .  S
O1718      H1782   0.990       .  S
O1719      C1739   1.279       .  A
O1720      C1741   1.281       .  A
O1721     Zr1731   2.429       .  S
O1721      C1740   1.283       .  A
O1722     Zr1730   2.436       .  S
O1722      C1741   1.286       .  A
O1723      C1740   1.284       .  A
O1724     Zr1732   2.438       .  S
O1724      C1739   1.286       .  A
O1725     Zr1730   2.384       .  S
O1725     Zr1732   2.368       .  S
O1726     Zr1731   2.392       .  S
O1726     Zr1732   2.379       .  S
O1726      H1761   0.965       .  S
O1727     Zr1730   2.397       .  S
O1727     Zr1747   2.392       .  S
O1727      H1764   0.968       .  S
O1728     Zr1731   2.386       .  S
O1728     Zr1747   2.377       .  S
Zr1729     O1754   2.442       .  S
Zr1729     O1748   2.455       .  S
Zr1729     O1756   2.448       .  S
Zr1729     O1744   2.438       .  S
Zr1729     O1735   2.399       .  S
Zr1729     O1736   2.421       .  S
Zr1729     O1737   2.382       .  S
Zr1729     O1738   2.385       .  S
Zr1730     O1749   2.434       .  S
Zr1730     O1742   2.437       .  S
Zr1730     O1743   2.426       .  S
Zr1730     O1736   2.403       .  S
Zr1730     O1737   2.396       .  S
Zr1731     O1733   2.435       .  S
Zr1731     O1755   2.440       .  S
Zr1731     O1757   2.423       .  S
Zr1731     O1735   2.386       .  S
Zr1731     O1738   2.398       .  S
Zr1732     O1758   2.436       .  S
Zr1732     O1759   2.436       .  S
Zr1732     O1734   2.438       .  S
Zr1732     O1735   2.388       .  S
Zr1732     O1736   2.411       .  S
O1733      H1770   0.990       .  S
O1734      H1765   0.990       .  S
O1734      H1779   0.990       .  S
O1736      H1762   0.966       .  S
O1737     Zr1747   2.378       .  S
O1738     Zr1747   2.388       .  S
O1738      H1763   0.966       .  S
C1739      C2782   1.474       .  S
C1740      C2888   1.473       .  S
C1741      C3284   1.475       .  S
O1742      H1778   0.990       .  S
O1743      C1745   1.282       .  A
O1744      C1745   1.284       .  A
C1745      C2908   1.478       .  S
O1746     Zr1747   2.434       .  S
O1746      H1775   0.990       .  S
Zr1747     O1750   2.436       .  S
Zr1747     O1751   2.437       .  S
Zr1747     O1752   2.388       .  S
O1748      C1753   1.285       .  A
O1749      H1766   0.990       .  S
O1749      H1781   0.990       .  S
O1750      H1767   0.991       .  S
O1751      H1771   0.990       .  S
O1751      H1780   0.990       .  S
O1752      C1753   1.277       .  A
C1753      C2762   1.482       .  S
O1754      H1773   0.990       .  S
O1754      H1777   0.990       .  S
O1755      H1769   0.990       .  S
O1755      H1776   0.990       .  S
O1756      C1760   1.287       .  A
O1757      C1760   1.284       .  A
O1758      H1768   0.990       .  S
O1759      H1772   0.990       .  S
C1760      C2744   1.480       .  S
Zr1783     O1784   2.441       .  S
Zr1783     O1785   2.455       .  S
Zr1783     O1786   2.448       .  S
Zr1783     O1789   2.409       .  S
Zr1783     O1791   2.377       .  S
Zr1783     O1792   2.384       .  S
Zr1783     O1793   2.409       .  S
Zr1783     O1794   2.415       .  S
O1784      H1840   0.990       .  S
O1784      H1848   0.990       .  S
O1785      C1805   1.287       .  A
O1786      C1807   1.285       .  A
O1787     Zr1797   2.450       .  S
O1787      C1806   1.288       .  A
O1788     Zr1796   2.424       .  S
O1788      C1807   1.283       .  A
O1789      C1806   1.280       .  A
O1790     Zr1798   2.400       .  S
O1790      C1805   1.277       .  A
O1791     Zr1796   2.395       .  S
O1791     Zr1798   2.385       .  S
O1792     Zr1797   2.393       .  S
O1792     Zr1798   2.375       .  S
O1792      H1827   0.966       .  S
O1793     Zr1796   2.394       .  S
O1793     Zr1813   2.395       .  S
O1793      H1830   0.964       .  S
O1794     Zr1797   2.398       .  S
O1794     Zr1813   2.404       .  S
Zr1795     O1820   2.443       .  S
Zr1795     O1814   2.412       .  S
Zr1795     O1822   2.433       .  S
Zr1795     O1810   2.442       .  S
Zr1795     O1801   2.399       .  S
Zr1795     O1802   2.394       .  S
Zr1795     O1803   2.379       .  S
Zr1795     O1804   2.387       .  S
Zr1796     O1815   2.437       .  S
Zr1796     O1808   2.436       .  S
Zr1796     O1809   2.415       .  S
Zr1796     O1802   2.397       .  S
Zr1796     O1803   2.384       .  S
Zr1797     O1799   2.436       .  S
Zr1797     O1821   2.436       .  S
Zr1797     O1823   2.455       .  S
Zr1797     O1801   2.397       .  S
Zr1797     O1804   2.393       .  S
Zr1798     O1824   2.437       .  S
Zr1798     O1825   2.437       .  S
Zr1798     O1800   2.437       .  S
Zr1798     O1801   2.398       .  S
Zr1798     O1802   2.381       .  S
O1799      H1836   0.990       .  S
O1800      H1831   0.990       .  S
O1800      H1845   0.990       .  S
O1802      H1828   0.965       .  S
O1803     Zr1813   2.373       .  S
O1804     Zr1813   2.362       .  S
O1804      H1829   0.965       .  S
C1805      C2690   1.471       .  S
C1806      C2836   1.480   1_545  S
C1807      C2746   1.482       .  S
O1808      H1844   0.990       .  S
O1809      C1811   1.281       .  A
O1810      C1811   1.287       .  A
C1811      C2854   1.470       .  S
O1812     Zr1813   2.438       .  S
O1812      H1841   0.990       .  S
Zr1813     O1816   2.436       .  S
Zr1813     O1817   2.439       .  S
Zr1813     O1818   2.446       .  S
O1814      C1819   1.280       .  A
O1815      H1832   0.990       .  S
O1815      H1847   0.990       .  S
O1816      H1833   0.990       .  S
O1817      H1837   0.990       .  S
O1817      H1846   0.990       .  S
O1818      C1819   1.287       .  A
C1819      C2708   1.475       .  S
O1820      H1839   0.990       .  S
O1820      H1843   0.991       .  S
O1821      H1835   0.990       .  S
O1821      H1842   0.990       .  S
O1822      C1826   1.285       .  A
O1823      C1826   1.290       .  A
O1824      H1834   0.990       .  S
O1825      H1838   0.990       .  S
C1826      C2726   1.482       .  S
Zr1849     O1850   2.439       .  S
Zr1849     O1851   2.434       .  S
Zr1849     O1852   2.438       .  S
Zr1849     O1855   2.442       .  S
Zr1849     O1857   2.381       .  S
Zr1849     O1858   2.381       .  S
Zr1849     O1859   2.408       .  S
Zr1849     O1860   2.401       .  S
O1850      H1906   0.990       .  S
O1850      H1914   0.990       .  S
O1851      C1871   1.285       .  A
O1852      C1873   1.286       .  A
O1853     Zr1863   2.406       .  S
O1853      C1872   1.282       .  A
O1854     Zr1862   2.439       .  S
O1854      C1873   1.285       .  A
O1855      C1872   1.286       .  A
O1856     Zr1864   2.417       .  S
O1856      C1871   1.281       .  A
O1857     Zr1862   2.390       .  S
O1857     Zr1864   2.371       .  S
O1858     Zr1863   2.390       .  S
O1858     Zr1864   2.379       .  S
O1858      H1893   0.966       .  S
O1859     Zr1862   2.397       .  S
O1859     Zr1879   2.401       .  S
O1859      H1896   0.967       .  S
O1860     Zr1863   2.386       .  S
O1860     Zr1879   2.391       .  S
Zr1861     O1886   2.441       .  S
Zr1861     O1880   2.432       .  S
Zr1861     O1888   2.449       .  S
Zr1861     O1876   2.428       .  S
Zr1861     O1867   2.386       .  S
Zr1861     O1868   2.413       .  S
Zr1861     O1869   2.385       .  S
Zr1861     O1870   2.382       .  S
Zr1862     O1881   2.436       .  S
Zr1862     O1874   2.436       .  S
Zr1862     O1875   2.427       .  S
Zr1862     O1868   2.402       .  S
Zr1862     O1869   2.393       .  S
Zr1863     O1865   2.435       .  S
Zr1863     O1887   2.439       .  S
Zr1863     O1889   2.416       .  S
Zr1863     O1867   2.382       .  S
Zr1863     O1870   2.384       .  S
Zr1864     O1890   2.434       .  S
Zr1864     O1891   2.436       .  S
Zr1864     O1866   2.436       .  S
Zr1864     O1867   2.382       .  S
Zr1864     O1868   2.397       .  S
O1865      H1902   0.990       .  S
O1866      H1897   0.990       .  S
O1866      H1911   0.990       .  S
O1868      H1894   0.967       .  S
O1869     Zr1879   2.376       .  S
O1870     Zr1879   2.386       .  S
O1870      H1895   0.968       .  S
C1871      C2926   1.473   1_545  S
C1872      C2780   1.478       .  S
C1873      C2980   1.484       .  S
O1874      H1910   0.990       .  S
O1875      C1877   1.285       .  A
O1876      C1877   1.281       .  A
C1877      C2764   1.473       .  S
O1878     Zr1879   2.435       .  S
O1878      H1907   0.990       .  S
Zr1879     O1882   2.435       .  S
Zr1879     O1883   2.438       .  S
Zr1879     O1884   2.420       .  S
O1880      C1885   1.282       .  A
O1881      H1898   0.990       .  S
O1881      H1913   0.990       .  S
O1882      H1899   0.990       .  S
O1883      H1903   0.990       .  S
O1883      H1912   0.990       .  S
O1884      C1885   1.282       .  A
C1885      C2944   1.476       .  S
O1886      H1905   0.990       .  S
O1886      H1909   0.990       .  S
O1887      H1901   0.990       .  S
O1887      H1908   0.990       .  S
O1888      C1892   1.287       .  A
O1889      C1892   1.280       .  A
O1890      H1900   0.990       .  S
O1891      H1904   0.990       .  S
C1892      C2672   1.472       .  S
Zr1915     O1916   2.440       .  S
Zr1915     O1917   2.445       .  S
Zr1915     O1918   2.439       .  S
Zr1915     O1921   2.414       .  S
Zr1915     O1923   2.377       .  S
Zr1915     O1924   2.383       .  S
Zr1915     O1925   2.406       .  S
Zr1915     O1926   2.410       .  S
O1916      H1972   0.990       .  S
O1916      H1980   0.990       .  S
O1917      C1937   1.285       .  A
O1918      C1939   1.285       .  A
O1919     Zr1929   2.452       .  S
O1919      C1938   1.289       .  A
O1920     Zr1928   2.422       .  S
O1920      C1939   1.280       .  A
O1921      C1938   1.281       .  A
O1922     Zr1930   2.419       .  S
O1922      C1937   1.283       .  A
O1923     Zr1928   2.383       .  S
O1923     Zr1930   2.378       .  S
O1924     Zr1929   2.385       .  S
O1924     Zr1930   2.370       .  S
O1924      H1959   0.966       .  S
O1925     Zr1928   2.390       .  S
O1925     Zr1945   2.394       .  S
O1925      H1962   0.965       .  S
O1926     Zr1929   2.393       .  S
O1926     Zr1945   2.406       .  S
Zr1927     O1952   2.440       .  S
Zr1927     O1946   2.418       .  S
Zr1927     O1954   2.463       .  S
Zr1927     O1942   2.466       .  S
Zr1927     O1933   2.407       .  S
Zr1927     O1934   2.407       .  S
Zr1927     O1935   2.382       .  S
Zr1927     O1936   2.389       .  S
Zr1928     O1947   2.438       .  S
Zr1928     O1940   2.436       .  S
Zr1928     O1941   2.399       .  S
Zr1928     O1934   2.396       .  S
Zr1928     O1935   2.387       .  S
Zr1929     O1931   2.434       .  S
Zr1929     O1953   2.436       .  S
Zr1929     O1955   2.433       .  S
Zr1929     O1933   2.397       .  S
Zr1929     O1936   2.394       .  S
Zr1930     O1956   2.436       .  S
Zr1930     O1957   2.435       .  S
Zr1930     O1932   2.437       .  S
Zr1930     O1933   2.401       .  S
Zr1930     O1934   2.386       .  S
O1931      H1968   0.990       .  S
O1932      H1963   0.990       .  S
O1932      H1977   0.990       .  S
O1934      H1960   0.965       .  S
O1935     Zr1945   2.369       .  S
O1936     Zr1945   2.366       .  S
O1936      H1961   0.964       .  S
C1937      C2800   1.485       .  S
C1938      C2692   1.477       .  S
C1939      C2674   1.472       .  S
O1940      H1976   0.990       .  S
O1941      C1943   1.278       .  A
O1942      C1943   1.291       .  A
C1943      C2710   1.471       .  S
O1944     Zr1945   2.438       .  S
O1944      H1973   0.990       .  S
Zr1945     O1948   2.436       .  S
Zr1945     O1949   2.439       .  S
Zr1945     O1950   2.445       .  S
O1946      C1951   1.281       .  A
O1947      H1964   0.990       .  S
O1947      H1979   0.990       .  S
O1948      H1965   0.990       .  S
O1949      H1969   0.990       .  S
O1949      H1978   0.990       .  S
O1950      C1951   1.288       .  A
C1951      C2816   1.480       .  S
O1952      H1971   0.990       .  S
O1952      H1975   0.990       .  S
O1953      H1967   0.990       .  S
O1953      H1974   0.990       .  S
O1954      C1958   1.292       .  A
O1955      C1958   1.285       .  A
O1956      H1966   0.990       .  S
O1957      H1970   0.990       .  S
C1958      C2656   1.486       .  S
Zr1981     O1982   2.441       .  S
Zr1981     O1983   2.437       .  S
Zr1981     O1984   2.451       .  S
Zr1981     O1987   2.417       .  S
Zr1981     O1989   2.378       .  S
Zr1981     O1990   2.388       .  S
Zr1981     O1991   2.403       .  S
Zr1981     O1992   2.412       .  S
O1982      H2038   0.991       .  S
O1982      H2046   0.990       .  S
O1983      C2003   1.283       .  A
O1984      C2005   1.285       .  A
O1985     Zr1995   2.440       .  S
O1985      C2004   1.286       .  A
O1986     Zr1994   2.424       .  S
O1986      C2005   1.283       .  A
O1987      C2004   1.282       .  A
O1988     Zr1996   2.422       .  S
O1988      C2003   1.282       .  A
O1989     Zr1994   2.395       .  S
O1989     Zr1996   2.386       .  S
O1990     Zr1995   2.400       .  S
O1990     Zr1996   2.372       .  S
O1990      H2025   0.966       .  S
O1991     Zr1994   2.398       .  S
O1991     Zr2011   2.387       .  S
O1991      H2028   0.964       .  S
O1992     Zr1995   2.402       .  S
O1992     Zr2011   2.400       .  S
Zr1993     O2018   2.440       .  S
Zr1993     O2012   2.419       .  S
Zr1993     O2020   2.426       .  S
Zr1993     O2008   2.440       .  S
Zr1993     O1999   2.401       .  S
Zr1993     O2000   2.402       .  S
Zr1993     O2001   2.376       .  S
Zr1993     O2002   2.385       .  S
Zr1994     O2013   2.439       .  S
Zr1994     O2006   2.435       .  S
Zr1994     O2007   2.420       .  S
Zr1994     O2000   2.398       .  S
Zr1994     O2001   2.385       .  S
Zr1995     O1997   2.435       .  S
Zr1995     O2019   2.436       .  S
Zr1995     O2021   2.464       .  S
Zr1995     O1999   2.396       .  S
Zr1995     O2002   2.387       .  S
Zr1996     O2022   2.436       .  S
Zr1996     O2023   2.435       .  S
Zr1996     O1998   2.438       .  S
Zr1996     O1999   2.401       .  S
Zr1996     O2000   2.396       .  S
O1997      H2034   0.990       .  S
O1998      H2029   0.991       .  S
O1998      H2043   0.990       .  S
O2000      H2026   0.965       .  S
O2001     Zr2011   2.373       .  S
O2002     Zr2011   2.361       .  S
O2002      H2027   0.966       .  S
C2003      C2584   1.481       .  S
C2004      C2620   1.477       .  S
C2005      C2636   1.481       .  S
O2006      H2042   0.990       .  S
O2007      C2009   1.282       .  A
O2008      C2009   1.287       .  A
C2009      C2602   1.473       .  S
O2010     Zr2011   2.438       .  S
O2010      H2039   0.990       .  S
Zr2011     O2014   2.437       .  S
Zr2011     O2015   2.439       .  S
Zr2011     O2016   2.430       .  S
O2012      C2017   1.281       .  A
O2013      H2030   0.990       .  S
O2013      H2045   0.990       .  S
O2014      H2031   0.990       .  S
O2015      H2035   0.990       .  S
O2015      H2044   0.990       .  S
O2016      C2017   1.284       .  A
C2017      C2564   1.473       .  S
O2018      H2037   0.990       .  S
O2018      H2041   0.990       .  S
O2019      H2033   0.990       .  S
O2019      H2040   0.990       .  S
O2020      C2024   1.283       .  A
O2021      C2024   1.291       .  A
O2022      H2032   0.990       .  S
O2023      H2036   0.990       .  S
C2024      C2870   1.484       .  S
Zr2047     O2048   2.438       .  S
Zr2047     O2049   2.430       .  S
Zr2047     O2050   2.454       .  S
Zr2047     O2053   2.438       .  S
Zr2047     O2055   2.381       .  S
Zr2047     O2056   2.381       .  S
Zr2047     O2057   2.407       .  S
Zr2047     O2058   2.402       .  S
O2048      H2104   0.990       .  S
O2048      H2112   0.990       .  S
O2049      C2069   1.284       .  A
O2050      C2071   1.288       .  A
O2051     Zr2061   2.416       .  S
O2051      C2070   1.281       .  A
O2052     Zr2060   2.427       .  S
O2052      C2071   1.284       .  A
O2053      C2070   1.287       .  A
O2054     Zr2062   2.435       .  S
O2054      C2069   1.283       .  A
O2055     Zr2060   2.389       .  S
O2055     Zr2062   2.369       .  S
O2056     Zr2061   2.387       .  S
O2056     Zr2062   2.372       .  S
O2056      H2091   0.965       .  S
O2057     Zr2060   2.395       .  S
O2057     Zr2077   2.404       .  S
O2057      H2094   0.967       .  S
O2058     Zr2061   2.390       .  S
O2058     Zr2077   2.394       .  S
Zr2059     O2084   2.443       .  S
Zr2059     O2078   2.440       .  S
Zr2059     O2086   2.453       .  S
Zr2059     O2074   2.432       .  S
Zr2059     O2065   2.397       .  S
Zr2059     O2066   2.415       .  S
Zr2059     O2067   2.382       .  S
Zr2059     O2068   2.382       .  S
Zr2060     O2079   2.438       .  S
Zr2060     O2072   2.434       .  S
Zr2060     O2073   2.425       .  S
Zr2060     O2066   2.399       .  S
Zr2060     O2067   2.391       .  S
Zr2061     O2063   2.435       .  S
Zr2061     O2085   2.440       .  S
Zr2061     O2087   2.418       .  S
Zr2061     O2065   2.391       .  S
Zr2061     O2068   2.394       .  S
Zr2062     O2088   2.434       .  S
Zr2062     O2089   2.435       .  S
Zr2062     O2064   2.436       .  S
Zr2062     O2065   2.393       .  S
Zr2062     O2066   2.404       .  S
O2063      H2100   0.990       .  S
O2064      H2095   0.990       .  S
O2064      H2109   0.990       .  S
O2066      H2092   0.965       .  S
O2067     Zr2077   2.373       .  S
O2068     Zr2077   2.388       .  S
O2068      H2093   0.967       .  S
C2069      C2512   1.475       .  S
C2070      C2546   1.472       .  S
C2071      C3842   1.483       .  S
O2072      H2108   0.990       .  S
O2073      C2075   1.282       .  A
O2074      C2075   1.284       .  A
C2075      C2528   1.476       .  S
O2076     Zr2077   2.435       .  S
O2076      H2105   0.990       .  S
Zr2077     O2080   2.437       .  S
Zr2077     O2081   2.437       .  S
Zr2077     O2082   2.429       .  S
O2078      C2083   1.283       .  A
O2079      H2096   0.990       .  S
O2079      H2111   0.990       .  S
O2080      H2097   0.990       .  S
O2081      H2101   0.990       .  S
O2081      H2110   0.990       .  S
O2082      C2083   1.283       .  A
C2083      C2492   1.484       .  S
O2084      H2103   0.991       .  S
O2084      H2107   0.990       .  S
O2085      H2099   0.990       .  S
O2085      H2106   0.990       .  S
O2086      C2090   1.286       .  A
O2087      C2090   1.282       .  A
O2088      H2098   0.990       .  S
O2089      H2102   0.990       .  S
C2090      C2638   1.480       .  S
Zr2113     O2114   2.440       .  S
Zr2113     O2115   2.459       .  S
Zr2113     O2116   2.453       .  S
Zr2113     O2119   2.424       .  S
Zr2113     O2121   2.376       .  S
Zr2113     O2122   2.386       .  S
Zr2113     O2123   2.409   1_455  S
Zr2113     O2124   2.418       .  S
O2114      H2170   0.990       .  S
O2114      H2178   0.990       .  S
O2115      C2135   1.287       .  A
O2116      C2137   1.287       .  A
O2117     Zr2127   2.435       .  S
O2117      C2136   1.285       .  A
O2118     Zr2126   2.431       .  S
O2118      C2137   1.284   1_655  A
O2119      C2136   1.284       .  A
O2120     Zr2128   2.405       .  S
O2120      C2135   1.280       .  A
O2121     Zr2126   2.392   1_455  S
O2121     Zr2128   2.385       .  S
O2122     Zr2127   2.398       .  S
O2122     Zr2128   2.370       .  S
O2122      H2157   0.967       .  S
O2123     Zr2126   2.397       .  S
O2123     Zr2143   2.392       .  S
O2123      H2160   0.964       .  S
O2124     Zr2127   2.399       .  S
O2124     Zr2143   2.411   1_455  S
Zr2125     O2150   2.441       .  S
Zr2125     O2144   2.418       .  S
Zr2125     O2152   2.439       .  S
Zr2125     O2140   2.434       .  S
Zr2125     O2131   2.398       .  S
Zr2125     O2132   2.400       .  S
Zr2125     O2133   2.379       .  S
Zr2125     O2134   2.380       .  S
Zr2126     O2145   2.437       .  S
Zr2126     O2138   2.434       .  S
Zr2126     O2139   2.419       .  S
Zr2126     O2132   2.401       .  S
Zr2126     O2133   2.389       .  S
Zr2127     O2129   2.435       .  S
Zr2127     O2151   2.437       .  S
Zr2127     O2153   2.455   1_455  S
Zr2127     O2131   2.397   1_455  S
Zr2127     O2134   2.385   1_455  S
Zr2128     O2154   2.436       .  S
Zr2128     O2155   2.436       .  S
Zr2128     O2130   2.437       .  S
Zr2128     O2131   2.397   1_455  S
Zr2128     O2132   2.383   1_455  S
O2129      H2166   0.990       .  S
O2130      H2161   0.990       .  S
O2130      H2175   0.990       .  S
O2132      H2158   0.965       .  S
O2133     Zr2143   2.368       .  S
O2134     Zr2143   2.363       .  S
O2134      H2159   0.966       .  S
C2135      C2458   1.488       .  S
C2136      C2582   1.477       .  S
C2137      C2476   1.484       .  S
O2138      H2174   0.990       .  S
O2139      C2141   1.282       .  A
O2140      C2141   1.287       .  A
C2141      C2566   1.470       .  S
O2142     Zr2143   2.439       .  S
O2142      H2171   0.991       .  S
Zr2143     O2146   2.437       .  S
Zr2143     O2147   2.439       .  S
Zr2143     O2148   2.447       .  S
O2144      C2149   1.281       .  A
O2145      H2162   0.990       .  S
O2145      H2177   0.990       .  S
O2146      H2163   0.990       .  S
O2147      H2167   0.990       .  S
O2147      H2176   0.990       .  S
O2148      C2149   1.288       .  A
C2149      C2438   1.480       .  S
O2150      H2169   0.990       .  S
O2150      H2173   0.990       .  S
O2151      H2165   0.990       .  S
O2151      H2172   0.990       .  S
O2152      C2156   1.286       .  A
O2153      C2156   1.289       .  A
O2154      H2164   0.990       .  S
O2155      H2168   0.989   1_455  S
C2156      C2654   1.486       .  S
Zr2179     O2180   2.441       .  S
Zr2179     O2181   2.423       .  S
Zr2179     O2182   2.435       .  S
Zr2179     O2185   2.431       .  S
Zr2179     O2187   2.378       .  S
Zr2179     O2188   2.382       .  S
Zr2179     O2189   2.401   1_455  S
Zr2179     O2190   2.396       .  S
O2180      H2236   0.991       .  S
O2180      H2244   0.990       .  S
O2181      C2201   1.283       .  A
O2182      C2203   1.283       .  A
O2183     Zr2193   2.441       .  S
O2183      C2202   1.284       .  A
O2184     Zr2192   2.447       .  S
O2184      C2203   1.287   1_655  A
O2185      C2202   1.285       .  A
O2186     Zr2194   2.410       .  S
O2186      C2201   1.279       .  A
O2187     Zr2192   2.389   1_455  S
O2187     Zr2194   2.372       .  S
O2188     Zr2193   2.388       .  S
O2188     Zr2194   2.384       .  S
O2188      H2223   0.965       .  S
O2189     Zr2192   2.398       .  S
O2189     Zr2209   2.401       .  S
O2189      H2226   0.966       .  S
O2190     Zr2193   2.388       .  S
O2190     Zr2209   2.387   1_455  S
Zr2191     O2216   2.442       .  S
Zr2191     O2210   2.453       .  S
Zr2191     O2218   2.464       .  S
Zr2191     O2206   2.448       .  S
Zr2191     O2197   2.392       .  S
Zr2191     O2198   2.421       .  S
Zr2191     O2199   2.388       .  S
Zr2191     O2200   2.390       .  S
Zr2192     O2211   2.434       .  S
Zr2192     O2204   2.435       .  S
Zr2192     O2205   2.429       .  S
Zr2192     O2198   2.407       .  S
Zr2192     O2199   2.399       .  S
Zr2193     O2195   2.436       .  S
Zr2193     O2217   2.439       .  S
Zr2193     O2219   2.425   1_455  S
Zr2193     O2197   2.386   1_455  S
Zr2193     O2200   2.398   1_455  S
Zr2194     O2220   2.435       .  S
Zr2194     O2221   2.435   1_455  S
Zr2194     O2196   2.437   1_455  S
Zr2194     O2197   2.378   1_455  S
Zr2194     O2198   2.395   1_455  S
O2195      H2232   0.990       .  S
O2196      H2227   0.990   1_655  S
O2196      H2241   0.990   1_655  S
O2198      H2224   0.965       .  S
O2199     Zr2209   2.381       .  S
O2200     Zr2209   2.391       .  S
O2200      H2225   0.964       .  S
C2201      C2422   1.467       .  S
C2202      C2510   1.478       .  S
C2203      C3628   1.485       .  S
O2204      H2240   0.990       .  S
O2205      C2207   1.283       .  A
O2206      C2207   1.286       .  A
C2207      C2494   1.479       .  S
O2208     Zr2209   2.435   1_455  S
O2208      H2237   0.990       .  S
Zr2209     O2212   2.438       .  S
Zr2209     O2213   2.439       .  S
Zr2209     O2214   2.404       .  S
O2210      C2215   1.286       .  A
O2211      H2228   0.990       .  S
O2211      H2243   0.990       .  S
O2212      H2229   0.990       .  S
O2213      H2233   0.990       .  S
O2213      H2242   0.990       .  S
O2214      C2215   1.277       .  A
C2215      C2402   1.476       .  S
O2216      H2235   0.991       .  S
O2216      H2239   0.990       .  S
O2217      H2231   0.990       .  S
O2217      H2238   0.990       .  S
O2218      C2222   1.289       .  A
O2219      C2222   1.285       .  A
O2220      H2230   0.990       .  S
O2221      H2234   0.990       .  S
C2222      C2474   1.487       .  S
Zr2245     O2246   2.441       .  S
Zr2245     O2247   2.438       .  S
Zr2245     O2248   2.455       .  S
Zr2245     O2251   2.434       .  S
Zr2245     O2253   2.384       .  S
Zr2245     O2254   2.388       .  S
Zr2245     O2255   2.407       .  S
Zr2245     O2256   2.411       .  S
O2246      H2302   0.991       .  S
O2246      H2310   0.990       .  S
O2247      C2267   1.284       .  A
O2248      C2269   1.287       .  A
O2249     Zr2259   2.436       .  S
O2249      C2268   1.285       .  A
O2250     Zr2258   2.426   1_565  S
O2250      C2269   1.282       .  A
O2251      C2268   1.285       .  A
O2252     Zr2260   2.412       .  S
O2252      C2267   1.282       .  A
O2253     Zr2258   2.386   1_565  S
O2253     Zr2260   2.383       .  S
O2254     Zr2259   2.386       .  S
O2254     Zr2260   2.373       .  S
O2254      H2289   0.966       .  S
O2255     Zr2258   2.397   1_565  S
O2255     Zr2275   2.389   1_565  S
O2255      H2292   0.965       .  S
O2256     Zr2259   2.396       .  S
O2256     Zr2275   2.404   1_565  S
Zr2257     O2282   2.439       .  S
Zr2257     O2276   2.417       .  S
Zr2257     O2284   2.445       .  S
Zr2257     O2272   2.457       .  S
Zr2257     O2263   2.406   1_545  S
Zr2257     O2264   2.404       .  S
Zr2257     O2265   2.381       .  S
Zr2257     O2266   2.386       .  S
Zr2258     O2277   2.438       .  S
Zr2258     O2270   2.435       .  S
Zr2258     O2271   2.409       .  S
Zr2258     O2264   2.394       .  S
Zr2258     O2265   2.387       .  S
Zr2259     O2261   2.435       .  S
Zr2259     O2283   2.437       .  S
Zr2259     O2285   2.437       .  S
Zr2259     O2263   2.394       .  S
Zr2259     O2266   2.388   1_565  S
Zr2260     O2286   2.437       .  S
Zr2260     O2287   2.436       .  S
Zr2260     O2262   2.438       .  S
Zr2260     O2263   2.399       .  S
Zr2260     O2264   2.385   1_565  S
O2261      H2298   0.990       .  S
O2262      H2293   0.990       .  S
O2262      H2307   0.990       .  S
O2264      H2290   0.965       .  S
O2265     Zr2275   2.371       .  S
O2266     Zr2275   2.361       .  S
O2266      H2291   0.964       .  S
C2267      C2618   1.480       .  S
C2268      C2456   1.480       .  S
C2269      C2384   1.480       .  S
O2270      H2306   0.990       .  S
O2271      C2273   1.280       .  A
O2272      C2273   1.289       .  A
C2273      C2440   1.473       .  S
O2274     Zr2275   2.438   1_565  S
O2274      H2303   0.990   1_565  S
Zr2275     O2278   2.436       .  S
Zr2275     O2279   2.440       .  S
Zr2275     O2280   2.437       .  S
O2276      C2281   1.281       .  A
O2277      H2294   0.990       .  S
O2277      H2309   0.990       .  S
O2278      H2295   0.990       .  S
O2279      H2299   0.990       .  S
O2279      H2308   0.990   1_545  S
O2280      C2281   1.286       .  A
C2281      C2600   1.475       .  S
O2282      H2301   0.990       .  S
O2282      H2305   0.990       .  S
O2283      H2297   0.990       .  S
O2283      H2304   0.990       .  S
O2284      C2288   1.288       .  A
O2285      C2288   1.286   1_565  A
O2286      H2296   0.990       .  S
O2287      H2300   0.990       .  S
C2288      C2728   1.481       .  S
Zr2311     O2312   2.439       .  S
Zr2311     O2313   2.414       .  S
Zr2311     O2314   2.402       .  S
Zr2311     O2317   2.407       .  S
Zr2311     O2319   2.376       .  S
Zr2311     O2320   2.375       .  S
Zr2311     O2321   2.395       .  S
Zr2311     O2322   2.390       .  S
O2312      H2368   0.990       .  S
O2312      H2376   0.990       .  S
O2313      C2333   1.280       .  A
O2314      C2335   1.278       .  A
O2315     Zr2325   2.425       .  S
O2315      C2334   1.284       .  A
O2316     Zr2324   2.451   1_565  S
O2316      C2335   1.288       .  A
O2317      C2334   1.280       .  A
O2318     Zr2326   2.435       .  S
O2318      C2333   1.285       .  A
O2319     Zr2324   2.388   1_565  S
O2319     Zr2326   2.366       .  S
O2320     Zr2325   2.384       .  S
O2320     Zr2326   2.374       .  S
O2320      H2355   0.965       .  S
O2321     Zr2324   2.398   1_565  S
O2321     Zr2341   2.393   1_565  S
O2321      H2358   0.967       .  S
O2322     Zr2325   2.388       .  S
O2322     Zr2341   2.386   1_565  S
Zr2323     O2348   2.440       .  S
Zr2323     O2342   2.442       .  S
Zr2323     O2350   2.450       .  S
Zr2323     O2338   2.427       .  S
Zr2323     O2329   2.393   1_545  S
Zr2323     O2330   2.414   1_545  S
Zr2323     O2331   2.384       .  S
Zr2323     O2332   2.384   1_545  S
Zr2324     O2343   2.438       .  S
Zr2324     O2336   2.435       .  S
Zr2324     O2337   2.438       .  S
Zr2324     O2330   2.408   1_545  S
Zr2324     O2331   2.392       .  S
Zr2325     O2327   2.434       .  S
Zr2325     O2349   2.439       .  S
Zr2325     O2351   2.423       .  S
Zr2325     O2329   2.389       .  S
Zr2325     O2332   2.388       .  S
Zr2326     O2352   2.434       .  S
Zr2326     O2353   2.434       .  S
Zr2326     O2328   2.436       .  S
Zr2326     O2329   2.392       .  S
Zr2326     O2330   2.404       .  S
O2327      H2364   0.990       .  S
O2328      H2359   0.990       .  S
O2328      H2373   0.990       .  S
O2330      H2356   0.967   1_565  S
O2331     Zr2341   2.371       .  S
O2332     Zr2341   2.389   1_565  S
O2332      H2357   0.966   1_565  S
C2333      C2548   1.475       .  S
C2334      C2420   1.465       .  S
C2335      C3700   1.470       .  S
O2336      H2372   0.990       .  S
O2337      C2339   1.286       .  A
O2338      C2339   1.282       .  A
C2339      C2404   1.477       .  S
O2340     Zr2341   2.435   1_565  S
O2340      H2369   0.990       .  S
Zr2341     O2344   2.436       .  S
Zr2341     O2345   2.437       .  S
Zr2341     O2346   2.401       .  S
O2342      C2347   1.284       .  A
O2343      H2360   0.990       .  S
O2343      H2375   0.990       .  S
O2344      H2361   0.990       .  S
O2345      H2365   0.990       .  S
O2345      H2374   0.990       .  S
O2346      C2347   1.280       .  A
C2347      C2530   1.479       .  S
O2348      H2367   0.990       .  S
O2348      H2371   0.990       .  S
O2349      H2363   0.990       .  S
O2349      H2370   0.990       .  S
O2350      C2354   1.288   1_545  A
O2351      C2354   1.282       .  A
O2352      H2362   0.990       .  S
O2353      H2366   0.990       .  S
C2354      C2386   1.482       .  S
C2377      C2385   1.492       .  S
C2377      C2378   1.404       .  A
C2377      C2382   1.408       .  A
C2378      C2379   1.400   1_556  A
C2378      H2387   1.083       .  S
C2379      C2380   1.408       .  A
C2379      H2388   1.081       .  S
C2380      C2383   1.494       .  S
C2380      C2381   1.406       .  A
C2381      C2382   1.402   1_554  A
C2381      H2389   1.083       .  S
C2382      H2390   1.081       .  S
C2383      H2391   1.087       .  S
C2383      C2384   1.348       .  D
C2384      H2392   1.084       .  S
C2385      H2393   1.087   1_565  S
C2385      C2386   1.347       .  D
C2386      H2394   1.085       .  S
C2395      C2403   1.486       .  S
C2395      C2396   1.400       .  A
C2395      C2400   1.408       .  A
C2396      C2397   1.398       .  A
C2396      H2405   1.084       .  S
C2397      C2398   1.412       .  A
C2397      H2406   1.079       .  S
C2398      C2401   1.493       .  S
C2398      C2399   1.404       .  A
C2399      C2400   1.399       .  A
C2399      H2407   1.083       .  S
C2400      H2408   1.082       .  S
C2401      H2409   1.087       .  S
C2401      C2402   1.345       .  D
C2402      H2410   1.083       .  S
C2403      H2411   1.087       .  S
C2403      C2404   1.344       .  D
C2404      H2412   1.086       .  S
C2413      C2421   1.473       .  S
C2413      C2414   1.398       .  A
C2413      C2418   1.406       .  A
C2414      C2415   1.392       .  A
C2414      H2423   1.084       .  S
C2415      C2416   1.409       .  A
C2415      H2424   1.079       .  S
C2416      C2419   1.480       .  S
C2416      C2417   1.402       .  A
C2417      C2418   1.394       .  A
C2417      H2425   1.084       .  S
C2418      H2426   1.082       .  S
C2419      H2427   1.087       .  S
C2419      C2420   1.343       .  D
C2420      H2428   1.083       .  S
C2421      H2429   1.087       .  S
C2421      C2422   1.340       .  D
C2422      H2430   1.086       .  S
C2431      C2439   1.490       .  S
C2431      C2432   1.402       .  A
C2431      C2436   1.408       .  A
C2432      C2433   1.403       .  A
C2432      H2441   1.083       .  S
C2433      C2434   1.413       .  A
C2433      H2442   1.079       .  S
C2434      C2437   1.494       .  S
C2434      C2435   1.402       .  A
C2435      C2436   1.395       .  A
C2435      H2443   1.084       .  S
C2436      H2444   1.082       .  S
C2437      H2445   1.087       .  S
C2437      C2438   1.346       .  D
C2438      H2446   1.083       .  S
C2439      H2447   1.086       .  S
C2439      C2440   1.343       .  D
C2440      H2448   1.087       .  S
C2449      C2457   1.491       .  S
C2449      C2450   1.405       .  A
C2449      C2454   1.408       .  A
C2450      C2451   1.396       .  A
C2450      H2459   1.084       .  S
C2451      C2452   1.405       .  A
C2451      H2460   1.082       .  S
C2452      C2455   1.492       .  S
C2452      C2453   1.407       .  A
C2453      C2454   1.405       .  A
C2453      H2461   1.083       .  S
C2454      H2462   1.081       .  S
C2455      H2463   1.087       .  S
C2455      C2456   1.350       .  D
C2456      H2464   1.085       .  S
C2457      H2465   1.087       .  S
C2457      C2458   1.353       .  D
C2458      H2466   1.084       .  S
C2467      C2475   1.495       .  S
C2467      C2468   1.408       .  A
C2467      C2472   1.407   1_655  A
C2468      C2469   1.403   1_554  A
C2468      H2477   1.083       .  S
C2469      C2470   1.407       .  A
C2469      H2478   1.081       .  S
C2470      C2473   1.493       .  S
C2470      C2471   1.406   1_655  A
C2471      C2472   1.399   1_556  A
C2471      H2479   1.083       .  S
C2472      H2480   1.080       .  S
C2473      H2481   1.087   1_655  S
C2473      C2474   1.352       .  D
C2474      H2482   1.084       .  S
C2475      H2483   1.087       .  S
C2475      C2476   1.353   1_655  D
C2476      H2484   1.083       .  S
C2485      C2493   1.496       .  S
C2485      C2486   1.407       .  A
C2485      C2490   1.409       .  A
C2486      C2487   1.403       .  A
C2486      H2495   1.083       .  S
C2487      C2488   1.409       .  A
C2487      H2496   1.080       .  S
C2488      C2491   1.493       .  S
C2488      C2489   1.403       .  A
C2489      C2490   1.397       .  A
C2489      H2497   1.084       .  S
C2490      H2498   1.078       .  S
C2491      H2499   1.087       .  S
C2491      C2492   1.349       .  D
C2492      H2500   1.083       .  S
C2493      H2501   1.087       .  S
C2493      C2494   1.350       .  D
C2494      H2502   1.082       .  S
C2503      C2511   1.481       .  S
C2503      C2504   1.404       .  A
C2503      C2508   1.405       .  A
C2504      C2505   1.401       .  A
C2504      H2513   1.083       .  S
C2505      C2506   1.406       .  A
C2505      H2514   1.083       .  S
C2506      C2509   1.482       .  S
C2506      C2507   1.403       .  A
C2507      C2508   1.399       .  A
C2507      H2515   1.083       .  S
C2508      H2516   1.083       .  S
C2509      H2517   1.087       .  S
C2509      C2510   1.345       .  D
C2510      H2518   1.087       .  S
C2511      H2519   1.087       .  S
C2511      C2512   1.345       .  D
C2512      H2520   1.087       .  S
C2521      C2529   1.482       .  S
C2521      C2522   1.404       .  A
C2521      C2526   1.406       .  A
C2522      C2523   1.394       .  A
C2522      H2531   1.084       .  S
C2523      C2524   1.405       .  A
C2523      H2532   1.082       .  S
C2524      C2527   1.483       .  S
C2524      C2525   1.404       .  A
C2525      C2526   1.399       .  A
C2525      H2533   1.083       .  S
C2526      H2534   1.081       .  S
C2527      H2535   1.087       .  S
C2527      C2528   1.347       .  D
C2528      H2536   1.085       .  S
C2529      H2537   1.087       .  S
C2529      C2530   1.350       .  D
C2530      H2538   1.084       .  S
C2539      C2547   1.485       .  S
C2539      C2540   1.401       .  A
C2539      C2544   1.410       .  A
C2540      C2541   1.394       .  A
C2540      H2549   1.084       .  S
C2541      C2542   1.408       .  A
C2541      H2550   1.082       .  S
C2542      C2545   1.485       .  S
C2542      C2543   1.402       .  A
C2543      C2544   1.399       .  A
C2543      H2551   1.083       .  S
C2544      H2552   1.081       .  S
C2545      H2553   1.087       .  S
C2545      C2546   1.343       .  D
C2546      H2554   1.086       .  S
C2547      H2555   1.087       .  S
C2547      C2548   1.344       .  D
C2548      H2556   1.084       .  S
C2557      C2565   1.483       .  S
C2557      C2558   1.402       .  A
C2557      C2562   1.409       .  A
C2558      C2559   1.396       .  A
C2558      H2567   1.083       .  S
C2559      C2560   1.407       .  A
C2559      H2568   1.081       .  S
C2560      C2563   1.482       .  S
C2560      C2561   1.401       .  A
C2561      C2562   1.395       .  A
C2561      H2569   1.084       .  S
C2562      H2570   1.081       .  S
C2563      H2571   1.087       .  S
C2563      C2564   1.345       .  D
C2564      H2572   1.085       .  S
C2565      H2573   1.087       .  S
C2565      C2566   1.344       .  D
C2566      H2574   1.084       .  S
C2575      C2583   1.490       .  S
C2575      C2576   1.405       .  A
C2575      C2580   1.409       .  A
C2576      C2577   1.396       .  A
C2576      H2585   1.083       .  S
C2577      C2578   1.405       .  A
C2577      H2586   1.082       .  S
C2578      C2581   1.485       .  S
C2578      C2579   1.404       .  A
C2579      C2580   1.400       .  A
C2579      H2587   1.084       .  S
C2580      H2588   1.080       .  S
C2581      H2589   1.087       .  S
C2581      C2582   1.348       .  D
C2582      H2590   1.085       .  S
C2583      H2591   1.087       .  S
C2583      C2584   1.349       .  D
C2584      H2592   1.083       .  S
C2593      C2601   1.488       .  S
C2593      C2594   1.404       .  A
C2593      C2598   1.409       .  A
C2594      C2595   1.400       .  A
C2594      H2603   1.083       .  S
C2595      C2596   1.407       .  A
C2595      H2604   1.082       .  S
C2596      C2599   1.482       .  S
C2596      C2597   1.400       .  A
C2597      C2598   1.395       .  A
C2597      H2605   1.084       .  S
C2598      H2606   1.081       .  S
C2599      H2607   1.087       .  S
C2599      C2600   1.343       .  D
C2600      H2608   1.086       .  S
C2601      H2609   1.087       .  S
C2601      C2602   1.345       .  D
C2602      H2610   1.085       .  S
C2611      C2619   1.487       .  S
C2611      C2612   1.406       .  A
C2611      C2616   1.405       .  A
C2612      C2613   1.401       .  A
C2612      H2621   1.083       .  S
C2613      C2614   1.408       .  A
C2613      H2622   1.080       .  S
C2614      C2617   1.485       .  S
C2614      C2615   1.403       .  A
C2615      C2616   1.393       .  A
C2615      H2623   1.084       .  S
C2616      H2624   1.081       .  S
C2617      H2625   1.087       .  S
C2617      C2618   1.349       .  D
C2618      H2626   1.084       .  S
C2619      H2627   1.087       .  S
C2619      C2620   1.350       .  D
C2620      H2628   1.084       .  S
C2629      C2637   1.490       .  S
C2629      C2630   1.405       .  A
C2629      C2634   1.407       .  A
C2630      C2631   1.400   1_556  A
C2630      H2639   1.083       .  S
C2631      C2632   1.407       .  A
C2631      H2640   1.081       .  S
C2632      C2635   1.490       .  S
C2632      C2633   1.405       .  A
C2633      C2634   1.399   1_554  A
C2633      H2641   1.083       .  S
C2634      H2642   1.081       .  S
C2635      H2643   1.087       .  S
C2635      C2636   1.350       .  D
C2636      H2644   1.084       .  S
C2637      H2645   1.087       .  S
C2637      C2638   1.350       .  D
C2638      H2646   1.084       .  S
C2647      C2655   1.498       .  S
C2647      C2648   1.405       .  A
C2647      C2652   1.410       .  A
C2648      C2649   1.403       .  A
C2648      H2657   1.083       .  S
C2649      C2650   1.408       .  A
C2649      H2658   1.082       .  S
C2650      C2653   1.497       .  S
C2650      C2651   1.405       .  A
C2651      C2652   1.403       .  A
C2651      H2659   1.083       .  S
C2652      H2660   1.081       .  S
C2653      H2661   1.087       .  S
C2653      C2654   1.350       .  D
C2654      H2662   1.085       .  S
C2655      H2663   1.087       .  S
C2655      C2656   1.348       .  D
C2656      H2664   1.085       .  S
C2665      C2673   1.485       .  S
C2665      C2666   1.403       .  A
C2665      C2670   1.407       .  A
C2666      C2667   1.397       .  A
C2666      H2675   1.084       .  S
C2667      C2668   1.407       .  A
C2667      H2676   1.081       .  S
C2668      C2671   1.486       .  S
C2668      C2669   1.404       .  A
C2669      C2670   1.398       .  A
C2669      H2677   1.083       .  S
C2670      H2678   1.082       .  S
C2671      H2679   1.087       .  S
C2671      C2672   1.345       .  D
C2672      H2680   1.085       .  S
C2673      H2681   1.088       .  S
C2673      C2674   1.344       .  D
C2674      H2682   1.085       .  S
C2683      C2691   1.488       .  S
C2683      C2684   1.400       .  A
C2683      C2688   1.411       .  A
C2684      C2685   1.397       .  A
C2684      H2693   1.083       .  S
C2685      C2686   1.409       .  A
C2685      H2694   1.083       .  S
C2686      C2689   1.487       .  S
C2686      C2687   1.401       .  A
C2687      C2688   1.401       .  A
C2687      H2695   1.083       .  S
C2688      H2696   1.082       .  S
C2689      H2697   1.087       .  S
C2689      C2690   1.342       .  D
C2690      H2698   1.087       .  S
C2691      H2699   1.087       .  S
C2691      C2692   1.343   1_455  D
C2692      H2700   1.086       .  S
C2701      C2709   1.487       .  S
C2701      C2702   1.400       .  A
C2701      C2706   1.410       .  A
C2702      C2703   1.399       .  A
C2702      H2711   1.083       .  S
C2703      C2704   1.410       .  A
C2703      H2712   1.081       .  S
C2704      C2707   1.488       .  S
C2704      C2705   1.401       .  A
C2705      C2706   1.398       .  A
C2705      H2713   1.084       .  S
C2706      H2714   1.082       .  S
C2707      H2715   1.087       .  S
C2707      C2708   1.344       .  D
C2708      H2716   1.085       .  S
C2709      H2717   1.087       .  S
C2709      C2710   1.341       .  D
C2710      H2718   1.086       .  S
C2719      C2727   1.493       .  S
C2719      C2720   1.405       .  A
C2719      C2724   1.408       .  A
C2720      C2721   1.401       .  A
C2720      H2729   1.083       .  S
C2721      C2722   1.409       .  A
C2721      H2730   1.081       .  S
C2722      C2725   1.494       .  S
C2722      C2723   1.404       .  A
C2723      C2724   1.400       .  A
C2723      H2731   1.083       .  S
C2724      H2732   1.081   1_545  S
C2725      H2733   1.087       .  S
C2725      C2726   1.348       .  D
C2726      H2734   1.085       .  S
C2727      H2735   1.087       .  S
C2727      C2728   1.348       .  D
C2728      H2736   1.084   1_545  S
C2737      C2745   1.486       .  S
C2737      C2738   1.403       .  A
C2737      C2742   1.406       .  A
C2738      C2739   1.397       .  A
C2738      H2747   1.084       .  S
C2739      C2740   1.407       .  A
C2739      H2748   1.081       .  S
C2740      C2743   1.490       .  S
C2740      C2741   1.406       .  A
C2741      C2742   1.401       .  A
C2741      H2749   1.083       .  S
C2742      H2750   1.082       .  S
C2743      H2751   1.087       .  S
C2743      C2744   1.350       .  D
C2744      H2752   1.084       .  S
C2745      H2753   1.087       .  S
C2745      C2746   1.349       .  D
C2746      H2754   1.085       .  S
C2755      C2763   1.484       .  S
C2755      C2756   1.400       .  A
C2755      C2760   1.410       .  A
C2756      C2757   1.394       .  A
C2756      H2765   1.084       .  S
C2757      C2758   1.405       .  A
C2757      H2766   1.084       .  S
C2758      C2761   1.483       .  S
C2758      C2759   1.405       .  A
C2759      C2760   1.399       .  A
C2759      H2767   1.080       .  S
C2760      H2768   1.081       .  S
C2761      H2769   1.087       .  S
C2761      C2762   1.352       .  D
C2762      H2770   1.084       .  S
C2763      H2771   1.087       .  S
C2763      C2764   1.343       .  D
C2764      H2772   1.085       .  S
C2773      C2781   1.485       .  S
C2773      C2774   1.411       .  A
C2773      C2778   1.401       .  A
C2774      C2775   1.399       .  A
C2774      H2783   1.080       .  S
C2775      C2776   1.406       .  A
C2775      H2784   1.081       .  S
C2776      C2779   1.483   1_455  S
C2776      C2777   1.404       .  A
C2777      C2778   1.394       .  A
C2777      H2785   1.084       .  S
C2778      H2786   1.084       .  S
C2779      H2787   1.087       .  S
C2779      C2780   1.349       .  D
C2780      H2788   1.084       .  S
C2781      H2789   1.087       .  S
C2781      C2782   1.342       .  D
C2782      H2790   1.084       .  S
C2791      C2799   1.489       .  S
C2791      C2792   1.404       .  A
C2791      C2796   1.408       .  A
C2792      C2793   1.395       .  A
C2792      H2801   1.084       .  S
C2793      C2794   1.406       .  A
C2793      H2802   1.081       .  S
C2794      C2797   1.490       .  S
C2794      C2795   1.405       .  A
C2795      C2796   1.403       .  A
C2795      H2803   1.083       .  S
C2796      H2804   1.080       .  S
C2797      H2805   1.087       .  S
C2797      C2798   1.348       .  D
C2798      H2806   1.085       .  S
C2799      H2807   1.087       .  S
C2799      C2800   1.351   1_565  D
C2800      H2808   1.084       .  S
C2809      C2817   1.490       .  S
C2809      C2810   1.404       .  A
C2809      C2814   1.408       .  A
C2810      C2811   1.404       .  A
C2810      H2819   1.083       .  S
C2811      C2812   1.411       .  A
C2811      H2820   1.082       .  S
C2812      C2815   1.488       .  S
C2812      C2813   1.401       .  A
C2813      C2814   1.395       .  A
C2813      H2821   1.083       .  S
C2814      H2822   1.082       .  S
C2815      H2823   1.087       .  S
C2815      C2816   1.344       .  D
C2816      H2824   1.085       .  S
C2817      H2825   1.086       .  S
C2817      C2818   1.346       .  D
C2818      H2826   1.086       .  S
C2827      C2835   1.487       .  S
C2827      C2828   1.408       .  A
C2827      C2832   1.404       .  A
C2828      C2829   1.403       .  A
C2828      H2837   1.083       .  S
C2829      C2830   1.407       .  A
C2829      H2838   1.081       .  S
C2830      C2833   1.486   1_455  S
C2830      C2831   1.403       .  A
C2831      C2832   1.393       .  A
C2831      H2839   1.084       .  S
C2832      H2840   1.081       .  S
C2833      H2841   1.087       .  S
C2833      C2834   1.350       .  D
C2834      H2842   1.084       .  S
C2835      H2843   1.087   1_565  S
C2835      C2836   1.353       .  D
C2836      H2844   1.085       .  S
C2845      C2853   1.482       .  S
C2845      C2846   1.399       .  A
C2845      C2850   1.407       .  A
C2846      C2847   1.398       .  A
C2846      H2855   1.083       .  S
C2847      C2848   1.413       .  A
C2847      H2856   1.078       .  S
C2848      C2851   1.490       .  S
C2848      C2849   1.402       .  A
C2849      C2850   1.395       .  A
C2849      H2857   1.084       .  S
C2850      H2858   1.082       .  S
C2851      H2859   1.087       .  S
C2851      C2852   1.343       .  D
C2852      H2860   1.081       .  S
C2853      H2861   1.087       .  S
C2853      C2854   1.342       .  D
C2854      H2862   1.086       .  S
C2863      C2871   1.498       .  S
C2863      C2864   1.405       .  A
C2863      C2868   1.410       .  A
C2864      C2865   1.402       .  A
C2864      H2873   1.083       .  S
C2865      C2866   1.410       .  A
C2865      H2874   1.081       .  S
C2866      C2869   1.497       .  S
C2866      C2867   1.404       .  A
C2867      C2868   1.402       .  A
C2867      H2875   1.083       .  S
C2868      H2876   1.081       .  S
C2869      H2877   1.087       .  S
C2869      C2870   1.348       .  D
C2870      H2878   1.085       .  S
C2871      H2879   1.087       .  S
C2871      C2872   1.348       .  D
C2872      H2880   1.084       .  S
C2881      C2889   1.479       .  S
C2881      C2882   1.401       .  A
C2881      C2886   1.407       .  A
C2882      C2883   1.395       .  A
C2882      H2891   1.084       .  S
C2883      C2884   1.407       .  A
C2883      H2892   1.082       .  S
C2884      C2887   1.481   1_565  S
C2884      C2885   1.402       .  A
C2885      C2886   1.397       .  A
C2885      H2893   1.083       .  S
C2886      H2894   1.082       .  S
C2887      H2895   1.087       .  S
C2887      C2888   1.345       .  D
C2888      H2896   1.085   1_545  S
C2889      H2897   1.087       .  S
C2889      C2890   1.344   1_455  D
C2890      H2898   1.085       .  S
C2899      C2907   1.487       .  S
C2899      C2900   1.404       .  A
C2899      C2904   1.407       .  A
C2900      C2901   1.399       .  A
C2900      H2909   1.083       .  S
C2901      C2902   1.408       .  A
C2901      H2910   1.079       .  S
C2902      C2905   1.488       .  S
C2902      C2903   1.405       .  A
C2903      C2904   1.396       .  A
C2903      H2911   1.084       .  S
C2904      H2912   1.081       .  S
C2905      H2913   1.087       .  S
C2905      C2906   1.349       .  D
C2906      H2914   1.083       .  S
C2907      H2915   1.087       .  S
C2907      C2908   1.348       .  D
C2908      H2916   1.084       .  S
C2917      C2925   1.487       .  S
C2917      C2918   1.403       .  A
C2917      C2922   1.408       .  A
C2918      C2919   1.399       .  A
C2918      H2927   1.083       .  S
C2919      C2920   1.408       .  A
C2919      H2928   1.081       .  S
C2920      C2923   1.485       .  S
C2920      C2921   1.401       .  A
C2921      C2922   1.396       .  A
C2921      H2929   1.083       .  S
C2922      H2930   1.081       .  S
C2923      H2931   1.087       .  S
C2923      C2924   1.344       .  D
C2924      H2932   1.085       .  S
C2925      H2933   1.087       .  S
C2925      C2926   1.345       .  D
C2926      H2934   1.084       .  S
C2935      C2943   1.486       .  S
C2935      C2936   1.408       .  A
C2935      C2940   1.402       .  A
C2936      C2937   1.399       .  A
C2936      H2945   1.081       .  S
C2937      C2938   1.408       .  A
C2937      H2946   1.081       .  S
C2938      C2941   1.486       .  S
C2938      C2939   1.403       .  A
C2939      C2940   1.396       .  A
C2939      H2947   1.083       .  S
C2940      H2948   1.083       .  S
C2941      H2949   1.087       .  S
C2941      C2942   1.346       .  D
C2942      H2950   1.085       .  S
C2943      H2951   1.087       .  S
C2943      C2944   1.346       .  D
C2944      H2952   1.084       .  S
C2953      C2961   1.497       .  S
C2953      C2954   1.405       .  A
C2953      C2958   1.410       .  A
C2954      C2955   1.401       .  A
C2954      H2963   1.083       .  S
C2955      C2956   1.409       .  A
C2955      H2964   1.081       .  S
C2956      C2959   1.497       .  S
C2956      C2957   1.405       .  A
C2957      C2958   1.403       .  A
C2957      H2965   1.083       .  S
C2958      H2966   1.080       .  S
C2959      H2967   1.087       .  S
C2959      C2960   1.349       .  D
C2960      H2968   1.084       .  S
C2961      H2969   1.087       .  S
C2961      C2962   1.349       .  D
C2962      H2970   1.084       .  S
C2971      C2979   1.491       .  S
C2971      C2972   1.403       .  A
C2971      C2976   1.409   1_545  A
C2972      C2973   1.398   1_545  A
C2972      H2981   1.083       .  S
C2973      C2974   1.409       .  A
C2973      H2982   1.081       .  S
C2974      C2977   1.496       .  S
C2974      C2975   1.406       .  A
C2975      C2976   1.404       .  A
C2975      H2983   1.083       .  S
C2976      H2984   1.082       .  S
C2977      H2985   1.087       .  S
C2977      C2978   1.350       .  D
C2978      H2986   1.084       .  S
C2979      H2987   1.087       .  S
C2979      C2980   1.348       .  D
C2980      H2988   1.085       .  S
C2989      C2997   1.490       .  S
C2989      C2990   1.405       .  A
C2989      C2994   1.406       .  A
C2990      C2991   1.399       .  A
C2990      H2999   1.084       .  S
C2991      C2992   1.408       .  A
C2991      H3000   1.080       .  S
C2992      C2995   1.496       .  S
C2992      C2993   1.407       .  A
C2993      C2994   1.403       .  A
C2993      H3001   1.083       .  S
C2994      H3002   1.081       .  S
C2995      H3003   1.087       .  S
C2995      C2996   1.351       .  D
C2996      H3004   1.084       .  S
C2997      H3005   1.087       .  S
C2997      C2998   1.351       .  D
C2998      H3006   1.085       .  S
C3007      C3015   1.493       .  S
C3007      C3008   1.407       .  A
C3007      C3012   1.406       .  A
C3008      C3009   1.400       .  A
C3008      H3017   1.083       .  S
C3009      C3010   1.407       .  A
C3009      H3018   1.080       .  S
C3010      C3013   1.495       .  S
C3010      C3011   1.407       .  A
C3011      C3012   1.401       .  A
C3011      H3019   1.083       .  S
C3012      H3020   1.080       .  S
C3013      H3021   1.087       .  S
C3013      C3014   1.354   1_655  D
C3014      H3022   1.083       .  S
C3015      H3023   1.087       .  S
C3015      C3016   1.354       .  D
C3016      H3024   1.084       .  S
C3025      C3033   1.489       .  S
C3025      C3026   1.404       .  A
C3025      C3030   1.410       .  A
C3026      C3027   1.396       .  A
C3026      H3035   1.083       .  S
C3027      C3028   1.405       .  A
C3027      H3036   1.082       .  S
C3028      C3031   1.482       .  S
C3028      C3029   1.401       .  A
C3029      C3030   1.398       .  A
C3029      H3037   1.084       .  S
C3030      H3038   1.080       .  S
C3031      H3039   1.087       .  S
C3031      C3032   1.344       .  D
C3032      H3040   1.086       .  S
C3033      H3041   1.087       .  S
C3033      C3034   1.346       .  D
C3034      H3042   1.083       .  S
C3043      C3051   1.490       .  S
C3043      C3044   1.400       .  A
C3043      C3048   1.410       .  A
C3044      C3045   1.399       .  A
C3044      H3053   1.083       .  S
C3045      C3046   1.412       .  A
C3045      H3054   1.081       .  S
C3046      C3049   1.494       .  S
C3046      C3047   1.403       .  A
C3047      C3048   1.400       .  A
C3047      H3055   1.083       .  S
C3048      H3056   1.082       .  S
C3049      H3057   1.087       .  S
C3049      C3050   1.343       .  D
C3050      H3058   1.084       .  S
C3051      H3059   1.087       .  S
C3051      C3052   1.341       .  D
C3052      H3060   1.086       .  S
C3061      C3069   1.485       .  S
C3061      C3062   1.405       .  A
C3061      C3066   1.405       .  A
C3062      C3063   1.397       .  A
C3062      H3071   1.083       .  S
C3063      C3064   1.402       .  A
C3063      H3072   1.083       .  S
C3064      C3067   1.488       .  S
C3064      C3065   1.410       .  A
C3065      C3066   1.398       .  A
C3065      H3073   1.081       .  S
C3066      H3074   1.081       .  S
C3067      H3075   1.087       .  S
C3067      C3068   1.343       .  D
C3068      H3076   1.085       .  S
C3069      H3077   1.087       .  S
C3069      C3070   1.351       .  D
C3070      H3078   1.085       .  S
C3079      C3087   1.502       .  S
C3079      C3080   1.406       .  A
C3079      C3084   1.410       .  A
C3080      C3081   1.401       .  A
C3080      H3089   1.083       .  S
C3081      C3082   1.409       .  A
C3081      H3090   1.079       .  S
C3082      C3085   1.503       .  S
C3082      C3083   1.408       .  A
C3083      C3084   1.406       .  A
C3083      H3091   1.083       .  S
C3084      H3092   1.080       .  S
C3085      H3093   1.087       .  S
C3085      C3086   1.353       .  D
C3086      H3094   1.083       .  S
C3087      H3095   1.087       .  S
C3087      C3088   1.354       .  D
C3088      H3096   1.083       .  S
C3097      C3105   1.497       .  S
C3097      C3098   1.402       .  A
C3097      C3102   1.412       .  A
C3098      C3099   1.399   1_455  A
C3098      H3107   1.083       .  S
C3099      C3100   1.410       .  A
C3099      H3108   1.082       .  S
C3100      C3103   1.498       .  S
C3100      C3101   1.405       .  A
C3101      C3102   1.406   1_655  A
C3101      H3109   1.083       .  S
C3102      H3110   1.081       .  S
C3103      H3111   1.086       .  S
C3103      C3104   1.348       .  D
C3104      H3112   1.085       .  S
C3105      H3113   1.087       .  S
C3105      C3106   1.347       .  D
C3106      H3114   1.084       .  S
C3115      C3123   1.492       .  S
C3115      C3116   1.409       .  A
C3115      C3120   1.405       .  A
C3116      C3117   1.403       .  A
C3116      H3125   1.083       .  S
C3117      C3118   1.405       .  A
C3117      H3126   1.081   1_545  S
C3118      C3121   1.489   1_545  S
C3118      C3119   1.406       .  A
C3119      C3120   1.396       .  A
C3119      H3127   1.084       .  S
C3120      H3128   1.080       .  S
C3121      H3129   1.087       .  S
C3121      C3122   1.356       .  D
C3122      H3130   1.084       .  S
C3123      H3131   1.087       .  S
C3123      C3124   1.355       .  D
C3124      H3132   1.083       .  S
C3133      C3141   1.493       .  S
C3133      C3134   1.405       .  A
C3133      C3138   1.410       .  A
C3134      C3135   1.401       .  A
C3134      H3143   1.083       .  S
C3135      C3136   1.408       .  A
C3135      H3144   1.082       .  S
C3136      C3139   1.486       .  S
C3136      C3137   1.401       .  A
C3137      C3138   1.397       .  A
C3137      H3145   1.083       .  S
C3138      H3146   1.080       .  S
C3139      H3147   1.087       .  S
C3139      C3140   1.344       .  D
C3140      H3148   1.086       .  S
C3141      H3149   1.087       .  S
C3141      C3142   1.347       .  D
C3142      H3150   1.083       .  S
C3151      C3159   1.488       .  S
C3151      C3152   1.404       .  A
C3151      C3156   1.409       .  A
C3152      C3153   1.400       .  A
C3152      H3161   1.083       .  S
C3153      C3154   1.408       .  A
C3153      H3162   1.082       .  S
C3154      C3157   1.485       .  S
C3154      C3155   1.401       .  A
C3155      C3156   1.397       .  A
C3155      H3163   1.083       .  S
C3156      H3164   1.081       .  S
C3157      H3165   1.087   1_545  S
C3157      C3158   1.344   1_545  D
C3158      H3166   1.086   1_565  S
C3159      H3167   1.087       .  S
C3159      C3160   1.346       .  D
C3160      H3168   1.085       .  S
C3169      C3177   1.487       .  S
C3169      C3170   1.402       .  A
C3169      C3174   1.408       .  A
C3170      C3171   1.399       .  A
C3170      H3179   1.083       .  S
C3171      C3172   1.409       .  A
C3171      H3180   1.081       .  S
C3172      C3175   1.489       .  S
C3172      C3173   1.403       .  A
C3173      C3174   1.399       .  A
C3173      H3181   1.083       .  S
C3174      H3182   1.082       .  S
C3175      H3183   1.087       .  S
C3175      C3176   1.344       .  D
C3176      H3184   1.085       .  S
C3177      H3185   1.087       .  S
C3177      C3178   1.343       .  D
C3178      H3186   1.086       .  S
C3187      C3195   1.487       .  S
C3187      C3188   1.400       .  A
C3187      C3192   1.410       .  A
C3188      C3189   1.394       .  A
C3188      H3197   1.084       .  S
C3189      C3190   1.409       .  A
C3189      H3198   1.081       .  S
C3190      C3193   1.491   1_655  S
C3190      C3191   1.404       .  A
C3191      C3192   1.403       .  A
C3191      H3199   1.083       .  S
C3192      H3200   1.081       .  S
C3193      H3201   1.087       .  S
C3193      C3194   1.345       .  D
C3194      H3202   1.085       .  S
C3195      H3203   1.087       .  S
C3195      C3196   1.343   1_545  D
C3196      H3204   1.085       .  S
C3205      C3213   1.483       .  S
C3205      C3206   1.400       .  A
C3205      C3210   1.409       .  A
C3206      C3207   1.395       .  A
C3206      H3215   1.083       .  S
C3207      C3208   1.404       .  A
C3207      H3216   1.084       .  S
C3208      C3211   1.483       .  S
C3208      C3209   1.407       .  A
C3209      C3210   1.401       .  A
C3209      H3217   1.082       .  S
C3210      H3218   1.082       .  S
C3211      H3219   1.087       .  S
C3211      C3212   1.350       .  D
C3212      H3220   1.085       .  S
C3213      H3221   1.087       .  S
C3213      C3214   1.343       .  D
C3214      H3222   1.086       .  S
C3223      C3231   1.486   1_545  S
C3223      C3224   1.401       .  A
C3223      C3228   1.409       .  A
C3224      C3225   1.394       .  A
C3224      H3233   1.084       .  S
C3225      C3226   1.409       .  A
C3225      H3234   1.080       .  S
C3226      C3229   1.490       .  S
C3226      C3227   1.404       .  A
C3227      C3228   1.401       .  A
C3227      H3235   1.083       .  S
C3228      H3236   1.081   1_545  S
C3229      H3237   1.087       .  S
C3229      C3230   1.346       .  D
C3230      H3238   1.083       .  S
C3231      H3239   1.087       .  S
C3231      C3232   1.345       .  D
C3232      H3240   1.084       .  S
C3241      C3249   1.490       .  S
C3241      C3242   1.411       .  A
C3241      C3246   1.402       .  A
C3242      C3243   1.401       .  A
C3242      H3251   1.079       .  S
C3243      C3244   1.408       .  A
C3243      H3252   1.080       .  S
C3244      C3247   1.488       .  S
C3244      C3245   1.403       .  A
C3245      C3246   1.394       .  A
C3245      H3253   1.084       .  S
C3246      H3254   1.083       .  S
C3247      H3255   1.087       .  S
C3247      C3248   1.349       .  D
C3248      H3256   1.083       .  S
C3249      H3257   1.087       .  S
C3249      C3250   1.345       .  D
C3250      H3258   1.082       .  S
C3259      C3267   1.486       .  S
C3259      C3260   1.403       .  A
C3259      C3264   1.409       .  A
C3260      C3261   1.394       .  A
C3260      H3269   1.084       .  S
C3261      C3262   1.405       .  A
C3261      H3270   1.080       .  S
C3262      C3265   1.486       .  S
C3262      C3263   1.405       .  A
C3263      C3264   1.400       .  A
C3263      H3271   1.083       .  S
C3264      H3272   1.080       .  S
C3265      H3273   1.087       .  S
C3265      C3266   1.350       .  D
C3266      H3274   1.084       .  S
C3267      H3275   1.087       .  S
C3267      C3268   1.347       .  D
C3268      H3276   1.083       .  S
C3277      C3285   1.488       .  S
C3277      C3278   1.402       .  A
C3277      C3282   1.409       .  A
C3278      C3279   1.399       .  A
C3278      H3287   1.083       .  S
C3279      C3280   1.410       .  A
C3279      H3288   1.081       .  S
C3280      C3283   1.487       .  S
C3280      C3281   1.402       .  A
C3281      C3282   1.398       .  A
C3281      H3289   1.083       .  S
C3282      H3290   1.082       .  S
C3283      H3291   1.087       .  S
C3283      C3284   1.344       .  D
C3284      H3292   1.085       .  S
C3285      H3293   1.087       .  S
C3285      C3286   1.345       .  D
C3286      H3294   1.086       .  S
C3295      C3303   1.498       .  S
C3295      C3296   1.405       .  A
C3295      C3300   1.411       .  A
C3296      C3297   1.402       .  A
C3296      H3305   1.083       .  S
C3297      C3298   1.409       .  A
C3297      H3306   1.081       .  S
C3298      C3301   1.495       .  S
C3298      C3299   1.403       .  A
C3299      C3300   1.402       .  A
C3299      H3307   1.083       .  S
C3300      H3308   1.080       .  S
C3301      H3309   1.087       .  S
C3301      C3302   1.348       .  D
C3302      H3310   1.085   1_455  S
C3303      H3311   1.087       .  S
C3303      C3304   1.348       .  D
C3304      H3312   1.084       .  S
C3313      C3321   1.495       .  S
C3313      C3314   1.406       .  A
C3313      C3318   1.408   1_455  A
C3314      C3315   1.404       .  A
C3314      H3323   1.083       .  S
C3315      C3316   1.408       .  A
C3315      H3324   1.082       .  S
C3316      C3319   1.493       .  S
C3316      C3317   1.404   1_455  A
C3317      C3318   1.399       .  A
C3317      H3325   1.083       .  S
C3318      H3326   1.081       .  S
C3319      H3327   1.087   1_455  S
C3319      C3320   1.349       .  D
C3320      H3328   1.085       .  S
C3321      H3329   1.087       .  S
C3321      C3322   1.348   1_455  D
C3322      H3330   1.085       .  S
C3331      C3339   1.484       .  S
C3331      C3332   1.402       .  A
C3331      C3336   1.406       .  A
C3332      C3333   1.398       .  A
C3332      H3341   1.084       .  S
C3333      C3334   1.410       .  A
C3333      H3342   1.079       .  S
C3334      C3337   1.490       .  S
C3334      C3335   1.405       .  A
C3335      C3336   1.397       .  A
C3335      H3343   1.083       .  S
C3336      H3344   1.082       .  S
C3337      H3345   1.087       .  S
C3337      C3338   1.348       .  D
C3338      H3346   1.082       .  S
C3339      H3347   1.087       .  S
C3339      C3340   1.347       .  D
C3340      H3348   1.085       .  S
C3349      C3357   1.486       .  S
C3349      C3350   1.401       .  A
C3349      C3354   1.410       .  A
C3350      C3351   1.396       .  A
C3350      H3359   1.084       .  S
C3351      C3352   1.409       .  A
C3351      H3360   1.081       .  S
C3352      C3355   1.486       .  S
C3352      C3353   1.401       .  A
C3353      C3354   1.398       .  A
C3353      H3361   1.083       .  S
C3354      H3362   1.081       .  S
C3355      H3363   1.087       .  S
C3355      C3356   1.343       .  D
C3356      H3364   1.085       .  S
C3357      H3365   1.087       .  S
C3357      C3358   1.343       .  D
C3358      H3366   1.085       .  S
C3367      C3375   1.490       .  S
C3367      C3368   1.402       .  A
C3367      C3372   1.408       .  A
C3368      C3369   1.399       .  A
C3368      H3377   1.084       .  S
C3369      C3370   1.411       .  A
C3369      H3378   1.079       .  S
C3370      C3373   1.500       .  S
C3370      C3371   1.407       .  A
C3371      C3372   1.404       .  A
C3371      H3379   1.083       .  S
C3372      H3380   1.082       .  S
C3373      H3381   1.087       .  S
C3373      C3374   1.350       .  D
C3374      H3382   1.083       .  S
C3375      H3383   1.087       .  S
C3375      C3376   1.346       .  D
C3376      H3384   1.086       .  S
C3385      C3393   1.492       .  S
C3385      C3386   1.407       .  A
C3385      C3390   1.407   1_545  A
C3386      C3387   1.403       .  A
C3386      H3395   1.083       .  S
C3387      C3388   1.406       .  A
C3387      H3396   1.082       .  S
C3388      C3391   1.487       .  S
C3388      C3389   1.404   1_545  A
C3389      C3390   1.396       .  A
C3389      H3397   1.084       .  S
C3390      H3398   1.081       .  S
C3391      H3399   1.087   1_545  S
C3391      C3392   1.350       .  D
C3392      H3400   1.085       .  S
C3393      H3401   1.087       .  S
C3393      C3394   1.350   1_545  D
C3394      H3402   1.084       .  S
C3403      C3411   1.489       .  S
C3403      C3404   1.405       .  A
C3403      C3408   1.406       .  A
C3404      C3405   1.399       .  A
C3404      H3413   1.084       .  S
C3405      C3406   1.407       .  A
C3405      H3414   1.080       .  S
C3406      C3409   1.493       .  S
C3406      C3407   1.407       .  A
C3407      C3408   1.401       .  A
C3407      H3415   1.083       .  S
C3408      H3416   1.081       .  S
C3409      H3417   1.087       .  S
C3409      C3410   1.352       .  D
C3410      H3418   1.083       .  S
C3411      H3419   1.087       .  S
C3411      C3412   1.352       .  D
C3412      H3420   1.084       .  S
C3421      C3429   1.491       .  S
C3421      C3422   1.403       .  A
C3421      C3426   1.408       .  A
C3422      C3423   1.399       .  A
C3422      H3431   1.083       .  S
C3423      C3424   1.409       .  A
C3423      H3432   1.080       .  S
C3424      C3427   1.494       .  S
C3424      C3425   1.405       .  A
C3425      C3426   1.401       .  A
C3425      H3433   1.083       .  S
C3426      H3434   1.081       .  S
C3427      H3435   1.087       .  S
C3427      C3428   1.348       .  D
C3428      H3436   1.084       .  S
C3429      H3437   1.087       .  S
C3429      C3430   1.346       .  D
C3430      H3438   1.085       .  S
C3439      C3447   1.490       .  S
C3439      C3440   1.403       .  A
C3439      C3444   1.408       .  A
C3440      C3441   1.398       .  A
C3440      H3449   1.084       .  S
C3441      C3442   1.409       .  A
C3441      H3450   1.081       .  S
C3442      C3445   1.495       .  S
C3442      C3443   1.406       .  A
C3443      C3444   1.403       .  A
C3443      H3451   1.083       .  S
C3444      H3452   1.081       .  S
C3445      H3453   1.087       .  S
C3445      C3446   1.348       .  D
C3446      H3454   1.084       .  S
C3447      H3455   1.087       .  S
C3447      C3448   1.348       .  D
C3448      H3456   1.085       .  S
C3457      C3465   1.488       .  S
C3457      C3458   1.401       .  A
C3457      C3462   1.410       .  A
C3458      C3459   1.396       .  A
C3458      H3467   1.083       .  S
C3459      C3460   1.408       .  A
C3459      H3468   1.082       .  S
C3460      C3463   1.491       .  S
C3460      C3461   1.404       .  A
C3461      C3462   1.403       .  A
C3461      H3469   1.083       .  S
C3462      H3470   1.082       .  S
C3463      H3471   1.086       .  S
C3463      C3464   1.345       .  D
C3464      H3472   1.086       .  S
C3465      H3473   1.087       .  S
C3465      C3466   1.345       .  D
C3466      H3474   1.086       .  S
C3475      C3483   1.493       .  S
C3475      C3476   1.407       .  A
C3475      C3480   1.406       .  A
C3476      C3477   1.404       .  A
C3476      H3485   1.083       .  S
C3477      C3478   1.407       .  A
C3477      H3486   1.081       .  S
C3478      C3481   1.491       .  S
C3478      C3479   1.405       .  A
C3479      C3480   1.397       .  A
C3479      H3487   1.084       .  S
C3480      H3488   1.081       .  S
C3481      H3489   1.087       .  S
C3481      C3482   1.354       .  D
C3482      H3490   1.084       .  S
C3483      H3491   1.087       .  S
C3483      C3484   1.351       .  D
C3484      H3492   1.085       .  S
C3493      C3501   1.491       .  S
C3493      C3494   1.404       .  A
C3493      C3498   1.410       .  A
C3494      C3495   1.400       .  A
C3494      H3503   1.083       .  S
C3495      C3496   1.407       .  A
C3495      H3504   1.082       .  S
C3496      C3499   1.485       .  S
C3496      C3497   1.401       .  A
C3497      C3498   1.397       .  A
C3497      H3505   1.084       .  S
C3498      H3506   1.081       .  S
C3499      H3507   1.087       .  S
C3499      C3500   1.345       .  D
C3500      H3508   1.086       .  S
C3501      H3509   1.087       .  S
C3501      C3502   1.344       .  D
C3502      H3510   1.084       .  S
C3511      C3519   1.489       .  S
C3511      C3512   1.402       .  A
C3511      C3516   1.410       .  A
C3512      C3513   1.396       .  A
C3512      H3521   1.083       .  S
C3513      C3514   1.408       .  A
C3513      H3522   1.082       .  S
C3514      C3517   1.487       .  S
C3514      C3515   1.402       .  A
C3515      C3516   1.401       .  A
C3515      H3523   1.083       .  S
C3516      H3524   1.081       .  S
C3517      H3525   1.087       .  S
C3517      C3518   1.344       .  D
C3518      H3526   1.086       .  S
C3519      H3527   1.087       .  S
C3519      C3520   1.346       .  D
C3520      H3528   1.085       .  S
C3529      C3537   1.489       .  S
C3529      C3530   1.406       .  A
C3529      C3534   1.407       .  A
C3530      C3531   1.399       .  A
C3530      H3539   1.083       .  S
C3531      C3532   1.405       .  A
C3531      H3540   1.080       .  S
C3532      C3535   1.485       .  S
C3532      C3533   1.405       .  A
C3533      C3534   1.396       .  A
C3533      H3541   1.084       .  S
C3534      H3542   1.079       .  S
C3535      H3543   1.087       .  S
C3535      C3536   1.351       .  D
C3536      H3544   1.083       .  S
C3537      H3545   1.087       .  S
C3537      C3538   1.350       .  D
C3538      H3546   1.083       .  S
C3547      C3555   1.480       .  S
C3547      C3548   1.401       .  A
C3547      C3552   1.407       .  A
C3548      C3549   1.395       .  A
C3548      H3557   1.084       .  S
C3549      C3550   1.409       .  A
C3549      H3558   1.080       .  S
C3550      C3553   1.482       .  S
C3550      C3551   1.401       .  A
C3551      C3552   1.394       .  A
C3551      H3559   1.084       .  S
C3552      H3560   1.081       .  S
C3553      H3561   1.087       .  S
C3553      C3554   1.342       .  D
C3554      H3562   1.084       .  S
C3555      H3563   1.087       .  S
C3555      C3556   1.344       .  D
C3556      H3564   1.084       .  S
C3565      C3573   1.487       .  S
C3565      C3566   1.402       .  A
C3565      C3570   1.407       .  A
C3566      C3567   1.403       .  A
C3566      H3575   1.083       .  S
C3567      C3568   1.412       .  A
C3567      H3576   1.080       .  S
C3568      C3571   1.490       .  S
C3568      C3569   1.402       .  A
C3569      C3570   1.395       .  A
C3569      H3577   1.083       .  S
C3570      H3578   1.083       .  S
C3571      H3579   1.087       .  S
C3571      C3572   1.345       .  D
C3572      H3580   1.084       .  S
C3573      H3581   1.086       .  S
C3573      C3574   1.344       .  D
C3574      H3582   1.087       .  S
C3583      C3591   1.490       .  S
C3583      C3584   1.403       .  A
C3583      C3588   1.412       .  A
C3584      C3585   1.395       .  A
C3584      H3593   1.084       .  S
C3585      C3586   1.407       .  A
C3585      H3594   1.083       .  S
C3586      C3589   1.482       .  S
C3586      C3587   1.400       .  A
C3587      C3588   1.399       .  A
C3587      H3595   1.083       .  S
C3588      H3596   1.079       .  S
C3589      H3597   1.087       .  S
C3589      C3590   1.342       .  D
C3590      H3598   1.087       .  S
C3591      H3599   1.087       .  S
C3591      C3592   1.345       .  D
C3592      H3600   1.082       .  S
C3601      C3609   1.481       .  S
C3601      C3602   1.403       .  A
C3601      C3606   1.406       .  A
C3602      C3603   1.396       .  A
C3602      H3611   1.084       .  S
C3603      C3604   1.406       .  A
C3603      H3612   1.082       .  S
C3604      C3607   1.481       .  S
C3604      C3605   1.402       .  A
C3605      C3606   1.396       .  A
C3605      H3613   1.083       .  S
C3606      H3614   1.082       .  S
C3607      H3615   1.088       .  S
C3607      C3608   1.341       .  D
C3608      H3616   1.086       .  S
C3609      H3617   1.088       .  S
C3609      C3610   1.344       .  D
C3610      H3618   1.085       .  S
C3619      C3627   1.497       .  S
C3619      C3620   1.405       .  A
C3619      C3624   1.409       .  A
C3620      C3621   1.403       .  A
C3620      H3629   1.083       .  S
C3621      C3622   1.412       .  A
C3621      H3630   1.080       .  S
C3622      C3625   1.500       .  S
C3622      C3623   1.405       .  A
C3623      C3624   1.401       .  A
C3623      H3631   1.083       .  S
C3624      H3632   1.081       .  S
C3625      H3633   1.087       .  S
C3625      C3626   1.349       .  D
C3626      H3634   1.083       .  S
C3627      H3635   1.087   1_455  S
C3627      C3628   1.349       .  D
C3628      H3636   1.085       .  S
C3637      C3645   1.486       .  S
C3637      C3638   1.403       .  A
C3637      C3642   1.406       .  A
C3638      C3639   1.397       .  A
C3638      H3647   1.083       .  S
C3639      C3640   1.408       .  A
C3639      H3648   1.081       .  S
C3640      C3643   1.488       .  S
C3640      C3641   1.405       .  A
C3641      C3642   1.399       .  A
C3641      H3649   1.083       .  S
C3642      H3650   1.082       .  S
C3643      H3651   1.087       .  S
C3643      C3644   1.346       .  D
C3644      H3652   1.084       .  S
C3645      H3653   1.087       .  S
C3645      C3646   1.346       .  D
C3646      H3654   1.085       .  S
C3655      C3663   1.486       .  S
C3655      C3656   1.400       .  A
C3655      C3660   1.410       .  A
C3656      C3657   1.397       .  A
C3656      H3665   1.083       .  S
C3657      C3658   1.405       .  A
C3657      H3666   1.083       .  S
C3658      C3661   1.484       .  S
C3658      C3659   1.405       .  A
C3659      C3660   1.398       .  A
C3659      H3667   1.081       .  S
C3660      H3668   1.082       .  S
C3661      H3669   1.087       .  S
C3661      C3662   1.352       .  D
C3662      H3670   1.084       .  S
C3663      H3671   1.087       .  S
C3663      C3664   1.341       .  D
C3664      H3672   1.086       .  S
C3673      C3681   1.481       .  S
C3673      C3674   1.400       .  A
C3673      C3678   1.407       .  A
C3674      C3675   1.397       .  A
C3674      H3683   1.083       .  S
C3675      C3676   1.410       .  A
C3675      H3684   1.081       .  S
C3676      C3679   1.484       .  S
C3676      C3677   1.402       .  A
C3677      C3678   1.396       .  A
C3677      H3685   1.083       .  S
C3678      H3686   1.082       .  S
C3679      H3687   1.087       .  S
C3679      C3680   1.343       .  D
C3680      H3688   1.084       .  S
C3681      H3689   1.087   1_655  S
C3681      C3682   1.343   1_655  D
C3682      H3690   1.086   1_455  S
C3691      C3699   1.483       .  S
C3691      C3692   1.400       .  A
C3691      C3696   1.408       .  A
C3692      C3693   1.399       .  A
C3692      H3701   1.083       .  S
C3693      C3694   1.411       .  A
C3693      H3702   1.081       .  S
C3694      C3697   1.485       .  S
C3694      C3695   1.400       .  A
C3695      C3696   1.395       .  A
C3695      H3703   1.083       .  S
C3696      H3704   1.083       .  S
C3697      H3705   1.087       .  S
C3697      C3698   1.341       .  D
C3698      H3706   1.085       .  S
C3699      H3707   1.087       .  S
C3699      C3700   1.341       .  D
C3700      H3708   1.087       .  S
C3709      C3717   1.493       .  S
C3709      C3710   1.412       .  A
C3709      C3714   1.402       .  A
C3710      C3711   1.404       .  A
C3710      H3719   1.081       .  S
C3711      C3712   1.408       .  A
C3711      H3720   1.081       .  S
C3712      C3715   1.490       .  S
C3712      C3713   1.404       .  A
C3713      C3714   1.396       .  A
C3713      H3721   1.083       .  S
C3714      H3722   1.083       .  S
C3715      H3723   1.087       .  S
C3715      C3716   1.351       .  D
C3716      H3724   1.084       .  S
C3717      H3725   1.087       .  S
C3717      C3718   1.345       .  D
C3718      H3726   1.084       .  S
C3727      C3735   1.491       .  S
C3727      C3728   1.400       .  A
C3727      C3732   1.412       .  A
C3728      C3729   1.397       .  A
C3728      H3737   1.083       .  S
C3729      C3730   1.406       .  A
C3729      H3738   1.084       .  S
C3730      C3733   1.489       .  S
C3730      C3731   1.406       .  A
C3731      C3732   1.403       .  A
C3731      H3739   1.081       .  S
C3732      H3740   1.082       .  S
C3733      H3741   1.087       .  S
C3733      C3734   1.356       .  D
C3734      H3742   1.084       .  S
C3735      H3743   1.087       .  S
C3735      C3736   1.343       .  D
C3736      H3744   1.085       .  S
C3745      C3753   1.494       .  S
C3745      C3746   1.405       .  A
C3745      C3750   1.408       .  A
C3746      C3747   1.400       .  A
C3746      H3755   1.083       .  S
C3747      C3748   1.408       .  A
C3747      H3756   1.082       .  S
C3748      C3751   1.495       .  S
C3748      C3749   1.406       .  A
C3749      C3750   1.403       .  A
C3749      H3757   1.083       .  S
C3750      H3758   1.081       .  S
C3751      H3759   1.087       .  S
C3751      C3752   1.348       .  D
C3752      H3760   1.085       .  S
C3753      H3761   1.087       .  S
C3753      C3754   1.349       .  D
C3754      H3762   1.085       .  S
C3763      C3771   1.490       .  S
C3763      C3764   1.402       .  A
C3763      C3768   1.409       .  A
C3764      C3765   1.402       .  A
C3764      H3773   1.083       .  S
C3765      C3766   1.411       .  A
C3765      H3774   1.080       .  S
C3766      C3769   1.491       .  S
C3766      C3767   1.402       .  A
C3767      C3768   1.396       .  A
C3767      H3775   1.084       .  S
C3768      H3776   1.081       .  S
C3769      H3777   1.087       .  S
C3769      C3770   1.346   1_545  D
C3770      H3778   1.083       .  S
C3771      H3779   1.087       .  S
C3771      C3772   1.344       .  D
C3772      H3780   1.085       .  S
C3781      C3789   1.488       .  S
C3781      C3782   1.404       .  A
C3781      C3786   1.409       .  A
C3782      C3783   1.394       .  A
C3782      H3791   1.084       .  S
C3783      C3784   1.405       .  A
C3783      H3792   1.082       .  S
C3784      C3787   1.486       .  S
C3784      C3785   1.405       .  A
C3785      C3786   1.403       .  A
C3785      H3793   1.083       .  S
C3786      H3794   1.080       .  S
C3787      H3795   1.087       .  S
C3787      C3788   1.348       .  D
C3788      H3796   1.085       .  S
C3789      H3797   1.087       .  S
C3789      C3790   1.351       .  D
C3790      H3798   1.084       .  S
C3799      C3807   1.482       .  S
C3799      C3800   1.400       .  A
C3799      C3804   1.406       .  A
C3800      C3801   1.396       .  A
C3800      H3809   1.084       .  S
C3801      C3802   1.410       .  A
C3801      H3810   1.080       .  S
C3802      C3805   1.492       .  S
C3802      C3803   1.405       .  A
C3803      C3804   1.400       .  A
C3803      H3811   1.083       .  S
C3804      H3812   1.083       .  S
C3805      H3813   1.087       .  S
C3805      C3806   1.347       .  D
C3806      H3814   1.083       .  S
C3807      H3815   1.087       .  S
C3807      C3808   1.343       .  D
C3808      H3816   1.086       .  S
C3817      C3825   1.483       .  S
C3817      C3818   1.402       .  A
C3817      C3822   1.406       .  A
C3818      C3819   1.396       .  A
C3818      H3827   1.084       .  S
C3819      C3820   1.409       .  A
C3819      H3828   1.079       .  S
C3820      C3823   1.491       .  S
C3820      C3821   1.405       .  A
C3821      C3822   1.399       .  A
C3821      H3829   1.083       .  S
C3822      H3830   1.081       .  S
C3823      H3831   1.087   1_655  S
C3823      C3824   1.347       .  D
C3824      H3832   1.082       .  S
C3825      H3833   1.087       .  S
C3825      C3826   1.346   1_545  D
C3826      H3834   1.085       .  S
C3835      C3843   1.494       .  S
C3835      C3836   1.403       .  A
C3835      C3840   1.409       .  A
C3836      C3837   1.399       .  A
C3836      H3845   1.083       .  S
C3837      C3838   1.409       .  A
C3837      H3846   1.081       .  S
C3838      C3841   1.499       .  S
C3838      C3839   1.407       .  A
C3839      C3840   1.406       .  A
C3839      H3847   1.083       .  S
C3840      H3848   1.082       .  S
C3841      H3849   1.087       .  S
C3841      C3842   1.349       .  D
C3842      H3850   1.084       .  S
C3843      H3851   1.087       .  S
C3843      C3844   1.349       .  D
C3844      H3852   1.085       .  S
C3853      C3861   1.492       .  S
C3853      C3854   1.405       .  A
C3853      C3858   1.407       .  A
C3854      C3855   1.400       .  A
C3854      H3863   1.084       .  S
C3855      C3856   1.408       .  A
C3855      H3864   1.080       .  S
C3856      C3859   1.493       .  S
C3856      C3857   1.405       .  A
C3857      C3858   1.399       .  A
C3857      H3865   1.083       .  S
C3858      H3866   1.080       .  S
C3859      H3867   1.087       .  S
C3859      C3860   1.350       .  D
C3860      H3868   1.083       .  S
C3861      H3869   1.087       .  S
C3861      C3862   1.350       .  D
C3862      H3870   1.083       .  S
C3871      C3879   1.502       .  S
C3871      C3872   1.408       .  A
C3871      C3876   1.408       .  A
C3872      C3873   1.409       .  A
C3872      H3881   1.083       .  S
C3873      C3874   1.411       .  A
C3873      H3882   1.081       .  S
C3874      C3877   1.502       .  S
C3874      C3875   1.406       .  A
C3875      C3876   1.400       .  A
C3875      H3883   1.083       .  S
C3876      H3884   1.082       .  S
C3877      H3885   1.087       .  S
C3877      C3878   1.354   1_655  D
C3878      H3886   1.084       .  S
C3879      H3887   1.086       .  S
C3879      C3880   1.351       .  D
C3880      H3888   1.085       .  S
C3889      C3897   1.487       .  S
C3889      C3890   1.403       .  A
C3889      C3894   1.407       .  A
C3890      C3891   1.402       .  A
C3890      H3899   1.083       .  S
C3891      C3892   1.408       .  A
C3891      H3900   1.082       .  S
C3892      C3895   1.490       .  S
C3892      C3893   1.405       .  A
C3893      C3894   1.402       .  A
C3893      H3901   1.083       .  S
C3894      H3902   1.083       .  S
C3895      H3903   1.087       .  S
C3895      C3896   1.347       .  D
C3896      H3904   1.086       .  S
C3897      H3905   1.087       .  S
C3897      C3898   1.344       .  D
C3898      H3906   1.087       .  S
C3907      C3915   1.489       .  S
C3907      C3908   1.405       .  A
C3907      C3912   1.406       .  A
C3908      C3909   1.399       .  A
C3908      H3917   1.083       .  S
C3909      C3910   1.407       .  A
C3909      H3918   1.079       .  S
C3910      C3913   1.490       .  S
C3910      C3911   1.406       .  A
C3911      C3912   1.398       .  A
C3911      H3919   1.084       .  S
C3912      H3920   1.081       .  S
C3913      H3921   1.087   1_545  S
C3913      C3914   1.352   1_545  D
C3914      H3922   1.083       .  S
C3915      H3923   1.087       .  S
C3915      C3916   1.350       .  D
C3916      H3924   1.084       .  S
C3925      C3933   1.487       .  S
C3925      C3926   1.403       .  A
C3925      C3930   1.409       .  A
C3926      C3927   1.397       .  A
C3926      H3935   1.083       .  S
C3927      C3928   1.406       .  A
C3927      H3936   1.082       .  S
C3928      C3931   1.482       .  S
C3928      C3929   1.402       .  A
C3929      C3930   1.398       .  A
C3929      H3937   1.084       .  S
C3930      H3938   1.081       .  S
C3931      H3939   1.087       .  S
C3931      C3932   1.345       .  D
C3932      H3940   1.086       .  S
C3933      H3941   1.087       .  S
C3933      C3934   1.345       .  D
C3934      H3942   1.085       .  S
C3943      C3951   1.489       .  S
C3943      C3944   1.403       .  A
C3943      C3948   1.408       .  A
C3944      C3945   1.398   1_565  A
C3944      H3953   1.084       .  S
C3945      C3946   1.409       .  A
C3945      H3954   1.080       .  S
C3946      C3949   1.493       .  S
C3946      C3947   1.406   1_545  A
C3947      C3948   1.401       .  A
C3947      H3955   1.083       .  S
C3948      H3956   1.081       .  S
C3949      H3957   1.087       .  S
C3949      C3950   1.349       .  D
C3950      H3958   1.083       .  S
C3951      H3959   1.087       .  S
C3951      C3952   1.347       .  D
C3952      H3960   1.085       .  S
C3961      C3969   1.502       .  S
C3961      C3962   1.406       .  A
C3961      C3966   1.410       .  A
C3962      C3963   1.403       .  A
C3962      H3971   1.083       .  S
C3963      C3964   1.411       .  A
C3963      H3972   1.079       .  S
C3964      C3967   1.502       .  S
C3964      C3965   1.406       .  A
C3965      C3966   1.402       .  A
C3965      H3973   1.083       .  S
C3966      H3974   1.079       .  S
C3967      H3975   1.087       .  S
C3967      C3968   1.351       .  D
C3968      H3976   1.082       .  S
C3969      H3977   1.087       .  S
C3969      C3970   1.352       .  D
C3970      H3978   1.082       .  S
C3979      C3987   1.494       .  S
C3979      C3980   1.404       .  A
C3979      C3984   1.411       .  A
C3980      C3981   1.402       .  A
C3980      H3989   1.083       .  S
C3981      C3982   1.410       .  A
C3981      H3990   1.082       .  S
C3982      C3985   1.489       .  S
C3982      C3983   1.400       .  A
C3983      C3984   1.397       .  A
C3983      H3991   1.083       .  S
C3984      H3992   1.081       .  S
C3985      H3993   1.087       .  S
C3985      C3986   1.343       .  D
C3986      H3994   1.086       .  S
C3987      H3995   1.087       .  S
C3987      C3988   1.344       .  D
C3988      H3996   1.084       .  S
C3997      C4005   1.493       .  S
C3997      C3998   1.407       .  A
C3997      C4002   1.406       .  A
C3998      C3999   1.399       .  A
C3998      H4007   1.084       .  S
C3999      C4000   1.406       .  A
C3999      H4008   1.080       .  S
C4000      C4003   1.496       .  S
C4000      C4001   1.409       .  A
C4001      C4002   1.403       .  A
C4001      H4009   1.083       .  S
C4002      H4010   1.080       .  S
C4003      H4011   1.087       .  S
C4003      C4004   1.355       .  D
C4004      H4012   1.083       .  S
C4005      H4013   1.087       .  S
C4005      C4006   1.355       .  D
C4006      H4014   1.083       .  S
C4015      C4023   1.492       .  S
C4015      C4016   1.403       .  A
C4015      C4020   1.410       .  A
C4016      C4017   1.400       .  A
C4016      H4025   1.083       .  S
C4017      C4018   1.409       .  A
C4017      H4026   1.081       .  S
C4018      C4021   1.489       .  S
C4018      C4019   1.402       .  A
C4019      C4020   1.398       .  A
C4019      H4027   1.084       .  S
C4020      H4028   1.081       .  S
C4021      H4029   1.087       .  S
C4021      C4022   1.344       .  D
C4022      H4030   1.085       .  S
C4023      H4031   1.087   1_455  S
C4023      C4024   1.345   1_455  D
C4024      H4032   1.085       .  S
C4033      C4041   1.493       .  S
C4033      C4034   1.405       .  A
C4033      C4038   1.408       .  A
C4034      C4035   1.401       .  A
C4034      H4043   1.083       .  S
C4035      C4036   1.410       .  A
C4035      H4044   1.080       .  S
C4036      C4039   1.494       .  S
C4036      C4037   1.404       .  A
C4037      C4038   1.399       .  A
C4037      H4045   1.083       .  S
C4038      H4046   1.080       .  S
C4039      H4047   1.087       .  S
C4039      C4040   1.349       .  D
C4040      H4048   1.083       .  S
C4041      H4049   1.087       .  S
C4041      C4042   1.349       .  D
C4042      H4050   1.084       .  S
C4051      C4059   1.495       .  S
C4051      C4052   1.401       .  A
C4051      C4056   1.414       .  A
C4052      C4053   1.395       .  A
C4052      H4061   1.083       .  S
C4053      C4054   1.405       .  A
C4053      H4062   1.084       .  S
C4054      C4057   1.492       .  S
C4054      C4055   1.407       .  A
C4055      C4056   1.406       .  A
C4055      H4063   1.081       .  S
C4056      H4064   1.080       .  S
C4057      H4065   1.087       .  S
C4057      C4058   1.355   1_565  D
C4058      H4066   1.084       .  S
C4059      H4067   1.087       .  S
C4059      C4060   1.345       .  D
C4060      H4068   1.084       .  S
C4069      C4077   1.492       .  S
C4069      C4070   1.403       .  A
C4069      C4074   1.408       .  A
C4070      C4071   1.404       .  A
C4070      H4079   1.083       .  S
C4071      C4072   1.413       .  A
C4071      H4080   1.080       .  S
C4072      C4075   1.497       .  S
C4072      C4073   1.403       .  A
C4073      C4074   1.398       .  A
C4073      H4081   1.083       .  S
C4074      H4082   1.082       .  S
C4075      H4083   1.087       .  S
C4075      C4076   1.346       .  D
C4076      H4084   1.083       .  S
C4077      H4085   1.087       .  S
C4077      C4078   1.346       .  D
C4078      H4086   1.086       .  S
C4087      C4095   1.483       .  S
C4087      C4088   1.403       .  A
C4087      C4092   1.405       .  A
C4088      C4089   1.396       .  A
C4088      H4097   1.084       .  S
C4089      C4090   1.408       .  A
C4089      H4098   1.079       .  S
C4090      C4093   1.488       .  S
C4090      C4091   1.406       .  A
C4091      C4092   1.398       .  A
C4091      H4099   1.083       .  S
C4092      H4100   1.081       .  S
C4093      H4101   1.087       .  S
C4093      C4094   1.349       .  D
C4094      H4102   1.082       .  S
C4095      H4103   1.087       .  S
C4095      C4096   1.347       .  D
C4096      H4104   1.085       .  S
C4105      C4113   1.498       .  S
C4105      C4106   1.406       .  A
C4105      C4110   1.409       .  A
C4106      C4107   1.404       .  A
C4106      H4115   1.083       .  S
C4107      C4108   1.410       .  A
C4107      H4116   1.080       .  S
C4108      C4111   1.497       .  S
C4108      C4109   1.405       .  A
C4109      C4110   1.400       .  A
C4109      H4117   1.083       .  S
C4110      H4118   1.080       .  S
C4111      H4119   1.087       .  S
C4111      C4112   1.351       .  D
C4112      H4120   1.083       .  S
C4113      H4121   1.087       .  S
C4113      C4114   1.351       .  D
C4114      H4122   1.084       .  S
C4123      C4131   1.490   1_565  S
C4123      C4124   1.404       .  A
C4123      C4128   1.408       .  A
C4124      C4125   1.399       .  A
C4124      H4133   1.084       .  S
C4125      C4126   1.408       .  A
C4125      H4134   1.081       .  S
C4126      C4129   1.490       .  S
C4126      C4127   1.404       .  A
C4127      C4128   1.399       .  A
C4127      H4135   1.083       .  S
C4128      H4136   1.081       .  S
C4129      H4137   1.087       .  S
C4129      C4130   1.346       .  D
C4130      H4138   1.085       .  S
C4131      H4139   1.087       .  S
C4131      C4132   1.348       .  D
C4132      H4140   1.084       .  S
C4141      C4149   1.489       .  S
C4141      C4142   1.406       .  A
C4141      C4146   1.406       .  A
C4142      C4143   1.401       .  A
C4142      H4151   1.083       .  S
C4143      C4144   1.407       .  A
C4143      H4152   1.081       .  S
C4144      C4147   1.488       .  S
C4144      C4145   1.405       .  A
C4145      C4146   1.397       .  A
C4145      H4153   1.084       .  S
C4146      H4154   1.081       .  S
C4147      H4155   1.087       .  S
C4147      C4148   1.352       .  D
C4148      H4156   1.084       .  S
C4149      H4157   1.087       .  S
C4149      C4150   1.349       .  D
C4150      H4158   1.084       .  S
C4159      C4167   1.489       .  S
C4159      C4160   1.402       .  A
C4159      C4164   1.409       .  A
C4160      C4161   1.397       .  A
C4160      H4169   1.084       .  S
C4161      C4162   1.409       .  A
C4161      H4170   1.081       .  S
C4162      C4165   1.489       .  S
C4162      C4163   1.403       .  A
C4163      C4164   1.399       .  A
C4163      H4171   1.083       .  S
C4164      H4172   1.081       .  S
C4165      H4173   1.087       .  S
C4165      C4166   1.346       .  D
C4166      H4174   1.084       .  S
C4167      H4175   1.087       .  S
C4167      C4168   1.346       .  D
C4168      H4176   1.084       .  S
C4177      C4185   1.490       .  S
C4177      C4178   1.404       .  A
C4177      C4182   1.407       .  A
C4178      C4179   1.402       .  A
C4178      H4187   1.083       .  S
C4179      C4180   1.410       .  A
C4179      H4188   1.080       .  S
C4180      C4183   1.492       .  S
C4180      C4181   1.403       .  A
C4181      C4182   1.396       .  A
C4181      H4189   1.083       .  S
C4182      H4190   1.081       .  S
C4183      H4191   1.087       .  S
C4183      C4184   1.348       .  D
C4184      H4192   1.083       .  S
C4185      H4193   1.087       .  S
C4185      C4186   1.348       .  D
C4186      H4194   1.085       .  S
C4195      C4203   1.493       .  S
C4195      C4196   1.403   1_655  A
C4195      C4200   1.409       .  A
C4196      C4197   1.399       .  A
C4196      H4205   1.084       .  S
C4197      C4198   1.410       .  A
C4197      H4206   1.081       .  S
C4198      C4201   1.495       .  S
C4198      C4199   1.404       .  A
C4199      C4200   1.402   1_455  A
C4199      H4207   1.083       .  S
C4200      H4208   1.081       .  S
C4201      H4209   1.087       .  S
C4201      C4202   1.348       .  D
C4202      H4210   1.084       .  S
C4203      H4211   1.087       .  S
C4203      C4204   1.348       .  D
C4204      H4212   1.084       .  S
C4213      C4221   1.487       .  S
C4213      C4214   1.403       .  A
C4213      C4218   1.406       .  A
C4214      C4215   1.402       .  A
C4214      H4223   1.083       .  S
C4215      C4216   1.411       .  A
C4215      H4224   1.080       .  S
C4216      C4219   1.491       .  S
C4216      C4217   1.403       .  A
C4217      C4218   1.396       .  A
C4217      H4225   1.083       .  S
C4218      H4226   1.082       .  S
C4219      H4227   1.087       .  S
C4219      C4220   1.347       .  D
C4220      H4228   1.084       .  S
C4221      H4229   1.087       .  S
C4221      C4222   1.347       .  D
C4222      H4230   1.086       .  S
C4231      C4239   1.485       .  S
C4231      C4232   1.404       .  A
C4231      C4236   1.405       .  A
C4232      C4233   1.403       .  A
C4232      H4241   1.083       .  S
C4233      C4234   1.409       .  A
C4233      H4242   1.080       .  S
C4234      C4237   1.489       .  S
C4234      C4235   1.405       .  A
C4235      C4236   1.394       .  A
C4235      H4243   1.084       .  S
C4236      H4244   1.082       .  S
C4237      H4245   1.087       .  S
C4237      C4238   1.351   1_455  D
C4238      H4246   1.083       .  S
C4239      H4247   1.087       .  S
C4239      C4240   1.347       .  D
C4240      H4248   1.086       .  S
C4249      C4257   1.482       .  S
C4249      C4250   1.400       .  A
C4249      C4254   1.408       .  A
C4250      C4251   1.397       .  A
C4250      H4259   1.083       .  S
C4251      C4252   1.410       .  A
C4251      H4260   1.081       .  S
C4252      C4255   1.484       .  S
C4252      C4253   1.401       .  A
C4253      C4254   1.395       .  A
C4253      H4261   1.083       .  S
C4254      H4262   1.082       .  S
C4255      H4263   1.087       .  S
C4255      C4256   1.342       .  D
C4256      H4264   1.085       .  S
C4257      H4265   1.087       .  S
C4257      C4258   1.341       .  D
C4258      H4266   1.086       .  S
C4267      C4275   1.492       .  S
C4267      C4268   1.403       .  A
C4267      C4272   1.411       .  A
C4268      C4269   1.396       .  A
C4268      H4277   1.083       .  S
C4269      C4270   1.407       .  A
C4269      H4278   1.081       .  S
C4270      C4273   1.489       .  S
C4270      C4271   1.404       .  A
C4271      C4272   1.401       .  A
C4271      H4279   1.084       .  S
C4272      H4280   1.079       .  S
C4273      H4281   1.087       .  S
C4273      C4274   1.347       .  D
C4274      H4282   1.084       .  S
C4275      H4283   1.087       .  S
C4275      C4276   1.347       .  D
C4276      H4284   1.082       .  S
C4285      C4293   1.486       .  S
C4285      C4286   1.402       .  A
C4285      C4290   1.409       .  A
C4286      C4287   1.393       .  A
C4286      H4295   1.084       .  S
C4287      C4288   1.406       .  A
C4287      H4296   1.080       .  S
C4288      C4291   1.488       .  S
C4288      C4289   1.406       .  A
C4289      C4290   1.401       .  A
C4289      H4297   1.083       .  S
C4290      H4298   1.080       .  S
C4291      H4299   1.087       .  S
C4291      C4292   1.349       .  D
C4292      H4300   1.083       .  S
C4293      H4301   1.087       .  S
C4293      C4294   1.347       .  D
C4294      H4302   1.083       .  S
C4303      C4311   1.481       .  S
C4303      C4304   1.400       .  A
C4303      C4308   1.409       .  A
C4304      C4305   1.395       .  A
C4304      H4313   1.084       .  S
C4305      C4306   1.409       .  A
C4305      H4314   1.081       .  S
C4306      C4309   1.481       .  S
C4306      C4307   1.400       .  A
C4307      C4308   1.396       .  A
C4307      H4315   1.083       .  S
C4308      H4316   1.081   1_545  S
C4309      H4317   1.087       .  S
C4309      C4310   1.340       .  D
C4310      H4318   1.085       .  S
C4311      H4319   1.087       .  S
C4311      C4312   1.342       .  D
C4312      H4320   1.085   1_545  S
