geometry optimzed in LAMMPS
_audit_creation_date              2020-12-01 
_audit_creation_method            'lammps2cif' 
_symmetry_space_group_name_H-M    'P1' 
_symmetry_Int_Tables_number       1 
_symmetry_cell_setting            triclinic 
loop_ 
_symmetry_equiv_pos_as_xyz 
  x,y,z 
_cell_length_a                    30.35504931 
_cell_length_b                    30.301624860479805 
_cell_length_c                    57.01139954346549 
_cell_angle_alpha                 89.45133509644019 
_cell_angle_beta                  90.25824000987745 
_cell_angle_gamma                 119.69405629046013 
loop_ 
_atom_site_label 
_atom_site_type_symbol 
_atom_site_fract_x 
_atom_site_fract_y 
_atom_site_fract_z 
_atom_site_charge 
O1          O  0.93475848  0.36247908  0.75164637    -0.88500
C2          C  0.97451172  0.28800148  0.70628626     0.87500
Mg3        Mg  0.88255663  0.38635769  0.74419466     1.58100
O4          O  0.04842370  0.41908041  0.71397526    -0.88200
O5          O  0.01070186  0.39642022  0.76627513    -0.75600
C6          C  0.92168551  0.46004302  0.62981767     0.92600
O7          O  0.86137281  0.28042620  0.71466191    -0.75400
O8          O  0.88539228  0.44865134  0.64448034    -0.82900
Mg9        Mg  0.91100305  0.28446479  0.74597303     1.58000
C10         C  0.12357145  0.50412252  0.65408857     0.92500
O11         O  0.95697748  0.28314348  0.77856151    -0.81100
H12         H  0.09610839  0.48132416  0.73285376    -0.06500
C13         C  0.95928392  0.37060832  0.65775118     0.87400
O14         O  0.94427464  0.46439284  0.73131651    -0.75700
O15         O  0.97519243  0.31172215  0.72403138    -0.88400
O16         O  0.12052852  0.47700956  0.67174149    -0.81200
C17         C  0.12466116  0.36232423  0.71269751     0.92600
C18         C  0.00126037  0.29007518  0.78314382     0.92500
Mg19       Mg  0.01464355  0.48324384  0.67053489     1.58000
O20         O  0.96563268  0.46989668  0.63704992    -0.81200
O21         O  0.06437088  0.49653793  0.70442960    -0.75400
O22         O  0.07941304  0.33097763  0.71766916    -0.81200
O23         O  0.84063300  0.25622667  0.76832798    -0.82900
O24         O  0.83230704  0.44149080  0.70208345    -0.81300
C25         C  0.07116280  0.46638371  0.71787502     0.86900
O26         O  0.95064544  0.46146775  0.69295659    -0.88400
O27         O  0.99667558  0.40373658  0.66926160    -0.88500
O28         O  0.91509531  0.36561325  0.65971571    -0.75600
Mg29       Mg  0.04426117  0.36380416  0.74084217     1.58000
O30         O  0.13271052  0.39253029  0.69566948    -0.82900
H31         H  0.95411892  0.40433265  0.78078457    -0.06700
O32         O  0.87008653  0.35644788  0.70955709    -0.88200
H33         H  0.82236354  0.29669625  0.69039129    -0.06500
H34         H  0.98846740  0.52577262  0.71098266    -0.06700
C35         C  0.84970929  0.31080761  0.70451285     0.86900
C36         C  0.96553540  0.38793930  0.76696049     0.87500
C37         C  0.96131277  0.48558463  0.71150770     0.87500
H38         H  0.96482141  0.34568811  0.64620668    -0.06600
O39         O  0.00338005  0.31026795  0.68871618    -0.75700
Mg40       Mg  0.87721446  0.40498122  0.68028928     1.58000
H41         H  0.94937872  0.24737045  0.70580454    -0.06700
C42         C  0.80841906  0.27148711  0.76859945     0.92500
O43         O  0.83032863  0.41362102  0.73854726    -0.82900
C44         C  0.81760226  0.43634818  0.72377342     0.90200
O45         O  0.03630347  0.30800862  0.76793379    -0.82900
Mg46       Mg  0.06270450  0.39490872  0.68022277     1.58200
O47         O  0.81698453  0.31327693  0.75929887    -0.81200
O48         O  0.08511874  0.50704277  0.64710851    -0.82900
O49         O  0.92609312  0.58581700  0.40519054    -0.88500
C50         C  0.97725355  0.70347718  0.45003587     0.87500
Mg51       Mg  0.87080620  0.51101046  0.41271772     1.58100
O52         O  0.04149065  0.63530520  0.44254880    -0.88200
O53         O  0.00192116  0.62129669  0.39043956    -0.75600
C54         C  0.90944687  0.47248640  0.52727416     0.92600
O55         O  0.85885884  0.60106022  0.44349700    -0.75400
O56         O  0.87117815  0.45136088  0.51328884    -0.82900
Mg57       Mg  0.90855861  0.64463906  0.41206490     1.58000
C58         C  0.10614764  0.62769556  0.50614900     0.92500
O59         O  0.95424698  0.69277449  0.37947987    -0.81100
H60         H  0.08690823  0.61638084  0.42418810    -0.06500
C61         C  0.95294503  0.60289010  0.49849583     0.87400
O62         O  0.92972848  0.48975118  0.42556338    -0.75700
O63         O  0.97414807  0.67687948  0.43304552    -0.88400
O64         O  0.11006440  0.64316774  0.48520625    -0.81200
C65         C  0.12628162  0.76829631  0.44208568     0.92600
C66         C  0.99995192  0.72705895  0.37493435     0.92500
Mg67       Mg  0.00206791  0.53903452  0.48671910     1.58000
O68         O  0.95333388  0.50475984  0.51966155    -0.81200
O69         O  0.05340143  0.57170065  0.45303186    -0.75400
O70         O  0.08129578  0.75617289  0.43745877    -0.81200
O71         O  0.83667070  0.60741500  0.39099115    -0.82900
O72         O  0.81464464  0.40665127  0.45534306    -0.81300
C73         C  0.06208365  0.60842688  0.43908929     0.86900
O74         O  0.93752273  0.49847202  0.46399318    -0.88400
O75         O  0.98889828  0.60445294  0.48667561    -0.88500
O76         O  0.90786143  0.56521987  0.49706632    -0.75600
Mg77       Mg  0.04058596  0.68721679  0.41552244     1.58000
O78         O  0.13361981  0.74452835  0.45872057    -0.82900
H79         H  0.94158809  0.56064716  0.37577695    -0.06700
O80         O  0.86080542  0.52982359  0.44757308    -0.88200
H81         H  0.81684845  0.54635284  0.46736341    -0.06500
H82         H  0.97244822  0.46934915  0.44538070    -0.06700
C83         C  0.84380139  0.55792904  0.45310893     0.86900
C84         C  0.95543871  0.58828980  0.38969223     0.87500
C85         C  0.94676351  0.48440419  0.44520731     0.87500
H86         H  0.96047779  0.63421939  0.50985314    -0.06600
O87         O  0.00685914  0.70974405  0.46722896    -0.75700
Mg88       Mg  0.86540404  0.48755111  0.47694799     1.58000
H89         H  0.95510269  0.72250030  0.45010127    -0.06700
C90         C  0.80213301  0.56103175  0.38998761     0.92500
O91         O  0.81498440  0.43215565  0.41838879    -0.82900
C92         C  0.79973350  0.39726152  0.43364314     0.92600
O93         O  0.03590821  0.73643993  0.38888862    -0.82900
Mg94       Mg  0.06023581  0.67676094  0.47559434     1.58200
O95         O  0.80805234  0.52490621  0.39797328    -0.81200
O96         O  0.06829601  0.58545750  0.51212508    -0.82900
O97         O  0.69726908  0.12378379  0.06848719    -0.88500
C98         C  0.75585958  0.07042305  0.11702704     0.87500
Mg99       Mg  0.67875144  0.17996980  0.07533535     1.58100
O100        O  0.62579530  0.00847613  0.10546505    -0.88200
O101        O  0.65738000  0.04811572  0.05363303    -0.75600
C102        C  0.58708987  0.13933819  0.18723296     0.92600
O103        O  0.77598269  0.18955618  0.10838166    -0.75400
O104        O  0.60662780  0.17737343  0.17295795    -0.82900
Mg105      Mg  0.77170823  0.13963447  0.07748289     1.58000
C106        C  0.54312359  0.94062121  0.16636082     0.92500
O107        O  0.77451364  0.09331039  0.04578403    -0.81100
H108        H  0.56421587  0.96461673  0.08527047    -0.06500
C109        C  0.67462174  0.09307254  0.16274353     0.87400
O110        O  0.59736882  0.12095349  0.08594824    -0.75700
O111        O  0.73560405  0.07374921  0.09863906    -0.88400
O112        O  0.55815651  0.93913065  0.14596117    -0.81200
C113        C  0.67253863  0.92209810  0.10975647     0.92600
C114        C  0.76293231  0.04771907  0.04078816     0.92500
Mg115      Mg  0.56363666  0.04656021  0.14722246     1.58000
O116        O  0.57492155  0.09478978  0.18025625    -0.81200
O117        O  0.54950428  0.99681991  0.11334743    -0.75400
O118        O  0.70580224  0.96677407  0.10485608    -0.81200
O119        O  0.80888851  0.21185220  0.05585955    -0.82900
O120        O  0.62151320  0.22949570  0.11555358    -0.81300
C121        C  0.57911214  0.98858249  0.10050621     0.86900
O122        O  0.59213820  0.11143885  0.12451666    -0.88400
O123        O  0.64121280  0.05859682  0.15007211    -0.88500
O124        O  0.68425439  0.13903301  0.16093152    -0.75600
Mg125      Mg  0.68093383  0.00789788  0.08038673     1.58000
O126        O  0.63911198  0.91518397  0.12481485    -0.82900
H127        H  0.65980203  0.10972209  0.03803079    -0.06700
O128        O  0.70223605  0.18630718  0.11090330    -0.88200
H129        H  0.76069538  0.23040339  0.13163668    -0.06500
H130        H  0.53168270  0.07766439  0.10356262    -0.06700
C131        C  0.74675343  0.20367318  0.11734607     0.86900
C132        C  0.67167944  0.09499809  0.05260011     0.87500
C133        C  0.57209726  0.10316098  0.10483130     0.87500
H134        H  0.69584032  0.08351778  0.17505481    -0.06600
O135        O  0.72978708  0.04109135  0.13391393    -0.75700
Mg136      Mg  0.65202250  0.18192033  0.13860516     1.58000
H137        H  0.79665968  0.09222442  0.11864690    -0.06700
C138        C  0.79951444  0.24842859  0.05494892     0.92500
O139        O  0.65594988  0.23593675  0.08031216    -0.82900
C140        C  0.63052580  0.24666470  0.09424540     0.92600
O141        O  0.73674887  0.01096692  0.05463299    -0.82900
Mg142      Mg  0.64278357  0.98805462  0.13981924     1.58200
O143        O  0.75780609  0.24354225  0.06259965    -0.81200
O144        O  0.53838734  0.97829765  0.17236329    -0.82900
O145        O  0.45913835  0.13364125  0.41290969    -0.88500
C146        C  0.33458331  0.06238569  0.37064900     0.87500
Mg147      Mg  0.52693199  0.19634468  0.40039968     1.58100
O148        O  0.41126742  0.00695932  0.37779533    -0.88200
O149        O  0.43597496  0.05843127  0.42729856    -0.75600
C150        C  0.56163636  0.14230763  0.28943955     0.92600
O151        O  0.42527145  0.18455206  0.37204067    -0.75400
O152        O  0.58428421  0.18058852  0.30317711    -0.82900
Mg153      Mg  0.39142741  0.13793213  0.40585825     1.58000
C154        C  0.42222598  0.94182888  0.31667469     0.92500
O155        O  0.35008360  0.09446064  0.44006895    -0.81100
H156        H  0.43986127  0.97155918  0.39716097    -0.06500
C157        C  0.43286745  0.09066490  0.31874705     0.87400
O158        O  0.55843825  0.14256328  0.39045075    -0.75700
O159        O  0.36474110  0.07032076  0.38689683    -0.88400
O160        O  0.40799352  0.94055858  0.33756153    -0.81200
C161        C  0.28001500  0.91586790  0.38022674     0.92600
C162        C  0.32196158  0.04799495  0.44617113     0.92500
Mg163      Mg  0.50455791  0.05198632  0.33233319     1.58000
O164        O  0.53123016  0.09832439  0.29784387    -0.81200
O165        O  0.47944849  0.00452751  0.36719833    -0.75400
O166        O  0.29129760  0.95922328  0.38757096    -0.81200
O167        O  0.42145732  0.21145288  0.42482317    -0.82900
O168        O  0.62490609  0.23240453  0.36099041    -0.81300
C169        C  0.44322282  0.99362156  0.38157646     0.86900
O170        O  0.53982822  0.11870534  0.35357036    -0.88400
O171        O  0.43590356  0.05926417  0.33259891    -0.88500
O172        O  0.46775469  0.13738946  0.31805813    -0.75600
Mg173      Mg  0.36559620  0.00944020  0.40535326     1.58000
O174        O  0.30553462  0.91213057  0.36353886    -0.82900
H175        H  0.49441926  0.12320903  0.44032676    -0.06700
O176        O  0.49813573  0.18788225  0.36631977    -0.88200
H177        H  0.47275194  0.22340696  0.34514050    -0.06500
H178        H  0.57918443  0.09645472  0.37393521    -0.06700
C179        C  0.46619863  0.19998837  0.36059151     0.86900
C180        C  0.46411871  0.10624835  0.42760523     0.87500
C181        C  0.55997558  0.11834349  0.37251082     0.87500
H182        H  0.40012132  0.07782653  0.30746799    -0.06600
O183        O  0.32967995  0.03283025  0.35387585    -0.75700
Mg184      Mg  0.54506056  0.18546060  0.33821684     1.58000
H185        H  0.31172419  0.08065467  0.37078226    -0.06700
C186        C  0.46407300  0.25188118  0.42275696     0.92500
O187        O  0.59481688  0.26372749  0.38684930    -0.82900
C188        C  0.63091101  0.25815445  0.37982469     0.92600
O189        O  0.31924956  0.01218566  0.43396531    -0.82900
Mg190      Mg  0.36950915  0.98623542  0.34619954     1.58200
O191        O  0.50137175  0.25240579  0.41234993    -0.81200
O192        O  0.46140044  0.98124303  0.30908607    -0.82900
O193        O  0.60794796  0.70530859  0.23679399    -0.88500
C194        C  0.71962049  0.77384929  0.28422530     0.87500
Mg195      Mg  0.53292326  0.68432566  0.24309677     1.58100
O196        O  0.65910231  0.64298372  0.27582203    -0.88200
O197        O  0.64759043  0.66770435  0.22332838    -0.75600
C198        C  0.48811615  0.60552257  0.35635835     0.92600
O199        O  0.61793626  0.78902674  0.27389060    -0.75400
O200        O  0.46931233  0.62388275  0.34159460    -0.82900
Mg201      Mg  0.66343385  0.78219891  0.24372188     1.58000
C202        C  0.64497010  0.56047218  0.33734677     0.92500
O203        O  0.71068384  0.78171940  0.21238458    -0.81100
H204        H  0.64398628  0.58036911  0.25701474    -0.06500
C205        C  0.62046230  0.69481292  0.33099283     0.87400
O206        O  0.51388873  0.60518267  0.25603643    -0.75700
O207        O  0.69661491  0.75107915  0.26627661    -0.88400
O208        O  0.66642462  0.58056755  0.31809106    -0.81200
C209        C  0.79139854  0.69502990  0.27945149     0.92600
C210        C  0.74637485  0.77236601  0.20776920     0.92500
Mg211      Mg  0.55958281  0.58186527  0.31779814     1.58000
O212        O  0.52139975  0.59380293  0.35015600    -0.81200
O213        O  0.59634948  0.56652148  0.28477089    -0.75400
O214        O  0.77860080  0.72725080  0.27382683    -0.81200
O215        O  0.62510603  0.81434947  0.22070297    -0.82900
O216        O  0.42893987  0.63296635  0.28463752    -0.81300
C217        C  0.63390414  0.59585011  0.27172934     0.86900
O218        O  0.52134169  0.60707050  0.29450919    -0.88400
O219        O  0.62279192  0.66008645  0.31987765    -0.88500
O220        O  0.58334540  0.70299298  0.32824835    -0.75600
Mg221      Mg  0.71206259  0.69727841  0.24967150     1.58000
O222        O  0.76694590  0.66360418  0.29568499    -0.82900
H223        H  0.58591951  0.66404348  0.20747528    -0.06700
O224        O  0.55031556  0.71384250  0.27780207    -0.88200
H225        H  0.56068119  0.77370940  0.29649810    -0.06500
H226        H  0.49418146  0.54289369  0.27631060    -0.06700
C227        C  0.57504293  0.75932671  0.28301056     0.86900
C228        C  0.61278393  0.67899449  0.22176064     0.87500
C229        C  0.50825556  0.58337703  0.27584394     0.87500
H230        H  0.65095069  0.71849868  0.34277039    -0.06600
O231        O  0.72489197  0.75034647  0.30182499    -0.75700
Mg232      Mg  0.50777366  0.66663676  0.30671624     1.58000
H233        H  0.73636093  0.81468670  0.28484147    -0.06700
C234        C  0.57826094  0.80100853  0.21924061     0.92500
O235        O  0.45438869  0.65995070  0.24806111    -0.82900
C236        C  0.41945856  0.63809125  0.26296134     0.92600
O237        O  0.76180561  0.75206628  0.22280835    -0.82900
Mg238      Mg  0.69597110  0.66449818  0.30999524     1.58200
O239        O  0.54366290  0.75900148  0.22760687    -0.81200
O240        O  0.60335460  0.55807791  0.34297477    -0.82900
O241        O  0.37372112  0.48371825  0.58338184    -0.88500
C242        C  0.28990756  0.36423408  0.54087820     0.87500
Mg243      Mg  0.39760153  0.55955740  0.57422196     1.58100
O244        O  0.42192460  0.41560651  0.54344224    -0.88200
O245        O  0.41030750  0.44170517  0.59566181    -0.75600
C246        C  0.45500040  0.57961192  0.45785530     0.92600
O247        O  0.28738431  0.47474615  0.54837389    -0.75400
O248        O  0.44422731  0.60603469  0.47182547    -0.82900
Mg249      Mg  0.29502543  0.43028085  0.57946066     1.58000
C250        C  0.48172794  0.41533051  0.47842419     0.92500
O251        O  0.29302922  0.38137552  0.61190224    -0.81100
H252        H  0.48610853  0.43112521  0.56021712    -0.06500
C253        C  0.36447246  0.45569531  0.48936806     0.87400
O254        O  0.47272692  0.57114360  0.55930205    -0.75700
O255        O  0.31806834  0.39048595  0.55690037    -0.88400
O256        O  0.46884876  0.39889273  0.49916541    -0.81200
C257        C  0.36032643  0.28288905  0.54530454     0.92600
C258        C  0.30001792  0.34354059  0.61557824     0.92500
Mg259      Mg  0.47893032  0.51069656  0.49830846     1.58000
O260        O  0.46379375  0.54544052  0.46594244    -0.81200
O261        O  0.49664296  0.47536134  0.53127858    -0.75400
O262        O  0.33229133  0.29985635  0.55204424    -0.81200
O263        O  0.27248065  0.47575951  0.60233186    -0.82900
O264        O  0.44475038  0.65855664  0.52846055    -0.81300
C265        C  0.46863640  0.44016598  0.54578903     0.86900
O266        O  0.46390592  0.55758938  0.52118145    -0.88400
O267        O  0.39834671  0.45126713  0.50037962    -0.88500
O268        O  0.36148337  0.49615648  0.49072975    -0.75600
Mg269      Mg  0.37215764  0.37300765  0.57174264     1.58000
O270        O  0.38864572  0.30407616  0.52767966    -0.82900
H271        H  0.42175367  0.50711393  0.61055071    -0.06700
O272        O  0.36285182  0.53891520  0.54043439    -0.88200
H273        H  0.30056334  0.52826295  0.52354616    -0.06500
H274        H  0.53019537  0.58259083  0.53759024    -0.06700
C275        C  0.31652487  0.51517361  0.53708402     0.86900
C276        C  0.40213275  0.47862516  0.59730846     0.87500
C277        C  0.49060723  0.57175928  0.53906705     0.87500
H278        H  0.33724360  0.42445277  0.47887156    -0.06600
O279        O  0.30762396  0.35328937  0.52300708    -0.75700
Mg280      Mg  0.40593604  0.57521687  0.50924701     1.58000
H281        H  0.24950642  0.34964713  0.54224327    -0.06700
C282        C  0.28632251  0.52286086  0.60183066     0.92500
O283        O  0.42555396  0.63887103  0.56629296    -0.82900
C284        C  0.44376669  0.67143060  0.54998584     0.92600
O285        O  0.32122420  0.32997762  0.60054029    -0.82900
Mg286      Mg  0.38999218  0.37629837  0.51191502     1.58200
O287        O  0.32602764  0.55568082  0.59102985    -0.81200
O288        O  0.49081131  0.45963594  0.47281331    -0.82900
O289        O  0.12858015  0.46748516  0.90734542    -0.88500
C290        C  0.07924710  0.35231115  0.95430499     0.87500
Mg291      Mg  0.18327646  0.54245214  0.91399670     1.58100
O292        O  0.01289137  0.41717115  0.94351457    -0.88200
O293        O  0.05323442  0.42933128  0.89198362    -0.75600
C294        C  0.13794941  0.58468543  0.02616476     0.92600
O295        O  0.19649279  0.45537642  0.94682307    -0.75400
O296        O  0.17620532  0.60643290  0.01218085    -0.82900
Mg297      Mg  0.14752149  0.41007872  0.91553919     1.58000
C298        C  0.94385300  0.42602155  0.00464302     0.92500
O299        O  0.10240450  0.36246380  0.88309107    -0.81100
H300        H  0.96740892  0.43361539  0.92334410    -0.06500
C301        C  0.09954992  0.45468294  0.00056443     0.87400
O302        O  0.12307716  0.56335907  0.92492904    -0.75700
O303        O  0.08168331  0.37718872  0.93646696    -0.88400
O304        O  0.94341493  0.41135958  0.98402256    -0.81200
C305        C  0.92990713  0.28565614  0.94576042     0.92600
C306        C  0.05750265  0.32706773  0.87823017     0.92500
Mg307      Mg  0.04739777  0.51501805  0.98570490     1.58000
O308        O  0.09458154  0.55121999  0.01865973    -0.81200
O309        O  0.99831416  0.47991973  0.95165357    -0.75400
O310        O  0.97487730  0.29688788  0.94166241    -0.81200
O311        O  0.21969036  0.44716748  0.89438241    -0.82900
O312        O  0.23018388  0.64839552  0.95387885    -0.81300
C313        C  0.99145276  0.44287743  0.93865564     0.86900
O314        O  0.11230127  0.55482025  0.96325871    -0.88400
O315        O  0.06383179  0.45174856  0.98790218    -0.88500
O316        O  0.14437740  0.49278154  0.99903779    -0.75600
Mg317      Mg  0.01501372  0.36414991  0.91805137     1.58000
O318        O  0.92234676  0.30923675  0.96207423    -0.82900
H319        H  0.11277940  0.49114611  0.87721494    -0.06700
O320        O  0.19192258  0.52540356  0.94941436    -0.88200
H321        H  0.23659618  0.51112685  0.97025790    -0.06500
H322        H  0.07796260  0.58282991  0.94301686    -0.06700
C323        C  0.20994693  0.49845897  0.95584803     0.86900
C324        C  0.09927649  0.46372999  0.89143938     0.87500
C325        C  0.10408146  0.56833638  0.94391870     0.87500
H326        H  0.09207099  0.42410042  0.01267990    -0.06600
O327        O  0.04942450  0.34669027  0.97125272    -0.75700
Mg328      Mg  0.18447818  0.56893176  0.97725353     1.58000
H329        H  0.10227072  0.33427034  0.95536582    -0.06700
C330        C  0.25395556  0.49363016  0.89301424     0.92500
O331        O  0.23844948  0.62087481  0.91887969    -0.82900
C332        C  0.24761254  0.65678577  0.93257345     0.92600
O333        O  0.02109933  0.31396876  0.89244672    -0.82900
Mg334      Mg  0.99441629  0.37839800  0.97759365     1.58200
O335        O  0.24733744  0.52939480  0.90050406    -0.81200
O336        O  0.97970989  0.46897181  0.01097834    -0.82900
O337        O  0.12685639  0.69924841  0.25078829    -0.88500
C338        C  0.07914722  0.76700516  0.20446028     0.87500
Mg339      Mg  0.18081386  0.67857151  0.24256161     1.58100
O340        O  0.00909656  0.63554547  0.21460795    -0.88200
O341        O  0.05165404  0.66244948  0.26619298    -0.75600
C342        C  0.13560395  0.60232059  0.12883734     0.92600
O343        O  0.19620310  0.78246099  0.21235599    -0.75400
O344        O  0.17398280  0.61696145  0.14260612    -0.82900
Mg345      Mg  0.14637832  0.77600806  0.24376411     1.58000
C346        C  0.93803618  0.55568921  0.15431439     0.92500
O347        O  0.10013252  0.77617180  0.27639094    -0.81100
H348        H  0.96899600  0.57423377  0.23502550    -0.06500
C349        C  0.09453981  0.68753782  0.15732728     0.87400
O350        O  0.12086077  0.59905711  0.23079475    -0.75700
O351        O  0.08135308  0.74445984  0.22228242    -0.88400
O352        O  0.93817757  0.57304481  0.17441839    -0.81200
C353        C  0.93039449  0.68853284  0.21316984     0.92600
C354        C  0.05508881  0.76743981  0.28057804     0.92500
Mg355      Mg  0.04573684  0.57527032  0.17098040     1.58000
O356        O  0.09196245  0.59009954  0.13710046    -0.81200
O357        O  0.99856236  0.56049518  0.20572083    -0.75400
O358        O  0.97582610  0.72051761  0.21690466    -0.81200
O359        O  0.21815885  0.80826560  0.26529773    -0.82900
O360        O  0.23130667  0.62730763  0.19915235    -0.81300
C361        C  0.99153835  0.58982450  0.21933458     0.86900
O362        O  0.11148220  0.59982521  0.19243955    -0.88400
O363        O  0.05982609  0.65323447  0.16975181    -0.88500
O364        O  0.14000390  0.69577837  0.15836478    -0.75600
Mg365      Mg  0.01430139  0.69049981  0.23978387     1.58000
O366        O  0.92093752  0.65509331  0.19786773    -0.82900
H367        H  0.11118054  0.65925693  0.28075208    -0.06700
O368        O  0.18901954  0.70735212  0.20759404    -0.88200
H369        H  0.23576538  0.76769967  0.18811627    -0.06500
H370        H  0.07765556  0.53610608  0.21160831    -0.06700
C371        C  0.20858729  0.75293658  0.20230949     0.86900
C372        C  0.09765090  0.67356533  0.26665954     0.87500
C373        C  0.10325496  0.57667185  0.21139103     0.87500
H374        H  0.08566298  0.71076569  0.14592070    -0.06600
O375        O  0.04852885  0.74308934  0.18778374    -0.75700
Mg376      Mg  0.18224532  0.65980232  0.17835308     1.58000
H377        H  0.10287086  0.80780021  0.20320943    -0.06700
C378        C  0.25233774  0.79553390  0.26551289     0.92500
O379        O  0.23477959  0.65467391  0.23568127    -0.82900
C380        C  0.24763880  0.63318959  0.22055208     0.92600
O381        O  0.02034204  0.74724867  0.26542554    -0.82900
Mg382      Mg  0.99197495  0.65669037  0.18181407     1.58200
O383        O  0.24537041  0.75395255  0.25684907    -0.81200
O384        O  0.97620128  0.55257959  0.14751060    -0.82900
O385        O  0.60262792  0.94166434  0.91496212    -0.88500
C386        C  0.71883232  0.00029113  0.86899364     0.87500
Mg387      Mg  0.52795563  0.88773435  0.90745607     1.58100
O388        O  0.64845416  0.06051921  0.88149601    -0.88200
O389        O  0.63797189  0.01466127  0.93229928    -0.75600
C390        C  0.49030093  0.93540436  0.79444074     0.92600
O391        O  0.61674258  0.87919129  0.87386170    -0.75400
O392        O  0.46627212  0.89712264  0.80836795    -0.82900
Mg393      Mg  0.66086010  0.92486387  0.90582255     1.58000
C394        C  0.63635759  0.13333362  0.82152825     0.92500
O395        O  0.70848727  0.96599989  0.93869713    -0.81100
H396        H  0.62624944  0.10025073  0.90220689    -0.06500
C397        C  0.61673187  0.97953402  0.82302208     0.87400
O398        O  0.50667133  0.94803358  0.89702010    -0.75700
O399        O  0.69283805  0.99401706  0.88673890    -0.88400
O400        O  0.65006514  0.13159487  0.84226859    -0.81200
C401        C  0.78160828  0.14830213  0.87974983     0.92600
C402        C  0.74225030  0.01054115  0.94502270     0.92500
Mg403      Mg  0.55126972  0.02509083  0.83727525     1.58000
O404        O  0.52090226  0.97916582  0.80279296    -0.81200
O405        O  0.58287680  0.07095231  0.87276757    -0.75400
O406        O  0.77115923  0.10349691  0.88436073    -0.81200
O407        O  0.62379150  0.84970367  0.92533785    -0.82900
O408        O  0.42297763  0.84046955  0.86610529    -0.81300
C409        C  0.61968536  0.07845393  0.88638059     0.86900
O410        O  0.51256015  0.95867046  0.85856066    -0.88400
O411        O  0.61693012  0.01311978  0.83613362    -0.88500
O412        O  0.58000009  0.93374979  0.82350383    -0.75600
Mg413      Mg  0.70269593  0.05765621  0.90686650     1.58000
O414        O  0.75470604  0.15544301  0.86473995    -0.82900
H415        H  0.57816714  0.95146568  0.94596291    -0.06700
O416        O  0.54559065  0.88157664  0.87203255    -0.88200
H417        H  0.56099628  0.83965282  0.85032100    -0.06500
H418        H  0.48427549  0.99158337  0.87910492    -0.06700
C419        C  0.57325285  0.86507949  0.86511433     0.86900
C420        C  0.60531169  0.96802427  0.93183024     0.87500
C421        C  0.49957226  0.96615608  0.87804821     0.87500
H422        H  0.64844920  0.98968057  0.81141291    -0.06600
O423        O  0.72335197  0.03184189  0.85286643    -0.75700
Mg424      Mg  0.50267796  0.88905778  0.84392812     1.58000
H425        H  0.73886874  0.97930092  0.86733999    -0.06700
C426        C  0.57723550  0.81582547  0.92706525     0.92500
O427        O  0.44928907  0.83337045  0.90189996    -0.82900
C428        C  0.41395009  0.82347346  0.88753582     0.92600
O429        O  0.75304629  0.04949695  0.93255019    -0.82900
Mg430      Mg  0.68739577  0.08368001  0.84785071     1.58200
O431        O  0.54149530  0.82341442  0.92024780    -0.81200
O432        O  0.59566656  0.09613298  0.81388671    -0.82900
O433        O  0.34692728  0.92290478  0.57185234    -0.88500
C434        C  0.28698813  0.98204860  0.61742513     0.87500
Mg435      Mg  0.36153998  0.86479952  0.58276822     1.58100
O436        O  0.41705243  0.04818683  0.60688447    -0.88200
O437        O  0.38849747  0.99955455  0.55713156    -0.75600
C438        C  0.46544183  0.92747791  0.69161897     0.92600
O439        O  0.26775081  0.86398310  0.61376851    -0.75400
O440        O  0.44807017  0.88887653  0.67796898    -0.82900
Mg441      Mg  0.27229228  0.90970275  0.58043326     1.58000
C442        C  0.50085698  0.12352439  0.66634420     0.92500
O443        O  0.27039147  0.95226094  0.54657599    -0.81100
H444        H  0.47769381  0.09318872  0.58627358    -0.06500
C445        C  0.37236673  0.96670895  0.66672640     0.87400
O446        O  0.44546651  0.92491838  0.59134333    -0.75700
O447        O  0.30849007  0.97781402  0.59984892    -0.88400
O448        O  0.48146816  0.12271815  0.64655931    -0.81200
C449        C  0.36437308  0.13140874  0.60676248     0.92600
C450        C  0.28170438  0.99746002  0.54055846     0.92500
Mg451      Mg  0.48190898  0.01578442  0.64953147     1.58000
O452        O  0.47453355  0.97084519  0.68378975    -0.81200
O453        O  0.49431207  0.06313531  0.61493452    -0.75400
O454        O  0.33307784  0.08669028  0.60081045    -0.81200
O455        O  0.23284700  0.83489318  0.56101011    -0.82900
O456        O  0.43462045  0.83769382  0.62011504    -0.81300
C457        C  0.46372016  0.06961366  0.60184659     0.86900
O458        O  0.45293688  0.94877753  0.62827921    -0.88400
O459        O  0.40314885  0.00055598  0.65268397    -0.88500
O460        O  0.36500331  0.92130028  0.66636789    -0.75600
Mg461      Mg  0.36181418  0.04259499  0.58047514     1.58000
O462        O  0.39654488  0.13819827  0.62266717    -0.82900
H463        H  0.39088289  0.93919753  0.54342036    -0.06700
O464        O  0.34255339  0.87030944  0.61760246    -0.88200
H465        H  0.28546667  0.82911825  0.63974679    -0.06500
H466        H  0.51215102  0.97602615  0.60639112    -0.06700
C467        C  0.29826633  0.85314878  0.62428364     0.86900
C468        C  0.37547199  0.95282279  0.55676475     0.87500
C469        C  0.47190173  0.95094915  0.60877239     0.87500
H470        H  0.35160565  0.97633121  0.67907703    -0.06600
O471        O  0.31171617  0.01287704  0.63387918    -0.75700
Mg472      Mg  0.39802780  0.87908240  0.64434640     1.58000
H473        H  0.24618536  0.95939807  0.61874248    -0.06700
C474        C  0.24167340  0.79798521  0.56184548     0.92500
O475        O  0.37179840  0.80171816  0.59496679    -0.82900
C476        C  0.41505482  0.81088693  0.60153436     0.92600
O477        O  0.30658999  0.03473512  0.55391095    -0.82900
Mg478      Mg  0.39747391  0.06864938  0.64011286     1.58200
O479        O  0.28196632  0.80247070  0.57111675    -0.81200
O480        O  0.50626891  0.08618662  0.67285408    -0.82900
O481        O  0.69660480  0.60161362  0.08218133    -0.88500
C482        C  0.76425941  0.71785633  0.03613820     0.87500
Mg483      Mg  0.67536639  0.52699194  0.07446520     1.58100
O484        O  0.63216796  0.65405162  0.04386883    -0.88200
O485        O  0.65714903  0.63869967  0.09636273    -0.75600
C486        C  0.60181770  0.49386145  0.96041674     0.92600
O487        O  0.77955709  0.61475297  0.04404206    -0.75400
O488        O  0.61506539  0.47011204  0.97503819    -0.82900
Mg489      Mg  0.77291421  0.65828474  0.07512673     1.58000
C490        C  0.55809663  0.64849037  0.98051504     0.92500
O491        O  0.77346675  0.70454145  0.10750922    -0.81100
H492        H  0.56854470  0.63841075  0.06209807    -0.06500
C493        C  0.68762553  0.62201888  0.98793687     0.87400
O494        O  0.59673559  0.50997027  0.06176419    -0.75700
O495        O  0.74082110  0.69209292  0.05350890    -0.88400
O496        O  0.57284889  0.66573797  0.00089953    -0.81200
C497        C  0.68184872  0.78570409  0.04321349     0.92600
C498        C  0.76300596  0.73961518  0.11198815     0.92500
Mg499      Mg  0.57482188  0.56026804  0.00013748     1.58000
O500        O  0.59091370  0.52706959  0.96750879    -0.81200
O501        O  0.55606698  0.59353434  0.03347013    -0.75400
O502        O  0.71465440  0.77314341  0.04768438    -0.81200
O503        O  0.80528596  0.61863537  0.09691172    -0.82900
O504        O  0.62338856  0.42699912  0.03140067    -0.81300
C505        C  0.58477264  0.62934301  0.04732596     0.86900
O506        O  0.59815191  0.51978854  0.02331062    -0.88400
O507        O  0.65316083  0.62362961  0.99964325    -0.88500
O508        O  0.69513930  0.58421850  0.98968297    -0.75600
Mg509      Mg  0.68581737  0.70480744  0.07069057     1.58000
O510        O  0.65173860  0.76383346  0.02636169    -0.82900
H511        H  0.65569447  0.57731521  0.11169159    -0.06700
O512        O  0.70468331  0.54717556  0.03963665    -0.88200
H513        H  0.76469252  0.55951829  0.02042177    -0.06500
H514        H  0.53460040  0.49303383  0.04214807    -0.06700
C515        C  0.75010877  0.57259150  0.03437804     0.86900
C516        C  0.66992765  0.60489850  0.09754045     0.87500
C517        C  0.57484447  0.50622691  0.04218713     0.87500
H518        H  0.71150010  0.65350675  0.97649942    -0.06600
O519        O  0.74134287  0.72503839  0.01891447    -0.75700
Mg520      Mg  0.65766269  0.50681650  0.01034129     1.58000
H521        H  0.80512533  0.73544098  0.03575367    -0.06700
C522        C  0.79212593  0.57171674  0.09805375     0.92500
O523        O  0.64982090  0.44792102  0.06837749    -0.82900
C524        C  0.62773717  0.41494512  0.05272975     0.92600
O525        O  0.74033455  0.75289906  0.09729358    -0.82900
Mg526      Mg  0.65579313  0.69562534  0.01039039     1.58200
O527        O  0.75046484  0.53697412  0.08957847    -0.81200
O528        O  0.55483531  0.60667455  0.97464935    -0.82900
O529        O  0.45775281  0.36746426  0.73867827    -0.88500
C530        C  0.34470383  0.29729951  0.78559977     0.87500
Mg531      Mg  0.53285262  0.38718565  0.74559125     1.58100
O532        O  0.40608891  0.42851292  0.77761534    -0.88200
O533        O  0.41903307  0.40672226  0.72540344    -0.75600
C534        C  0.57454363  0.46423323  0.85921849     0.92600
O535        O  0.44622956  0.28276987  0.77587032    -0.75400
O536        O  0.59413236  0.44651121  0.84474929    -0.82900
Mg537      Mg  0.40104338  0.29046860  0.74530087     1.58000
C538        C  0.41606720  0.50628715  0.83925719     0.92500
O539        O  0.35275649  0.29161764  0.71358699    -0.81100
H540        H  0.42107717  0.49171420  0.75874684    -0.06500
C541        C  0.44319179  0.37473113  0.83317084     0.87400
O542        O  0.55231785  0.46635146  0.75855526    -0.75700
O543        O  0.36812620  0.32095891  0.76777057    -0.88400
O544        O  0.39682000  0.48876203  0.81943929    -0.81200
C545        C  0.27194390  0.37445885  0.78016047     0.92600
C546        C  0.31716103  0.30177423  0.70954371     0.92500
Mg547      Mg  0.50360009  0.48807866  0.82007355     1.58000
O548        O  0.54110692  0.47558810  0.85265800    -0.81200
O549        O  0.46798087  0.50484581  0.78680940    -0.75400
O550        O  0.28594537  0.34341064  0.77467252    -0.81200
O551        O  0.43917274  0.25849872  0.72252580    -0.82900
O552        O  0.63677423  0.43922983  0.78724304    -0.81300
C553        C  0.43095425  0.47582634  0.77357815     0.86900
O554        O  0.54305137  0.46400705  0.79695612    -0.88400
O555        O  0.44058940  0.40949134  0.82183341    -0.88500
O556        O  0.48073799  0.36715089  0.83073175    -0.75600
Mg557      Mg  0.35366690  0.37590627  0.75132380     1.58000
O558        O  0.29651171  0.40669130  0.79590863    -0.82900
H559        H  0.48098469  0.41107475  0.70976774    -0.06700
O560        O  0.51458023  0.35721286  0.78040901    -0.88200
H561        H  0.50176619  0.29611483  0.79934253    -0.06500
H562        H  0.57093207  0.52839980  0.77833851    -0.06700
C563        C  0.48869331  0.31156856  0.78555420     0.86900
C564        C  0.45363680  0.39515741  0.72385349     0.87500
C565        C  0.55681855  0.48791105  0.77817479     0.87500
H566        H  0.41263360  0.35055882  0.84491183    -0.06600
O567        O  0.33888376  0.31992115  0.80314698    -0.75700
Mg568      Mg  0.55689428  0.40433259  0.80945571     1.58000
H569        H  0.32805634  0.25644717  0.78614306    -0.06700
C570        C  0.48575543  0.27073609  0.72145579     0.92500
O571        O  0.61197305  0.41084539  0.75088771    -0.82900
C572        C  0.64678367  0.43396374  0.76570328     0.92600
O573        O  0.30398986  0.32325177  0.72463794    -0.82900
Mg574      Mg  0.36733433  0.40536074  0.81124669     1.58200
O575        O  0.52093690  0.31180577  0.73014934    -0.81200
O576        O  0.45790463  0.50932452  0.84522640    -0.82900
C577        C  0.59002681  0.47338400  0.88449137    -0.05600
C578        C  0.58905511  0.43501394  0.89907741    -0.33100
C579        C  0.59357621  0.44068730  0.92380623     0.36200
C580        C  0.59963093  0.48545245  0.93434280    -0.06000
C581        C  0.60277326  0.52430003  0.91943941    -0.33000
C582        C  0.59799984  0.51859692  0.89506861     0.36100
H583        H  0.58208822  0.39953590  0.89143806     0.16500
O584        O  0.59003707  0.40153129  0.93742562    -0.60400
H585        H  0.60833262  0.55960779  0.92672102     0.16500
O586        O  0.59956797  0.55724912  0.88170571    -0.60500
H587        H  0.63549220  0.57805585  0.87670265     0.43500
H588        H  0.55370727  0.38126897  0.94179426     0.43400
C589        C  0.51045141  0.16525694  0.68239780    -0.05600
C590        C  0.49217699  0.15335593  0.70549210    -0.33100
C591        C  0.48562621  0.18834667  0.71880489     0.36200
C592        C  0.49927005  0.23648930  0.70935961    -0.06000
C593        C  0.52198269  0.25015485  0.68719311    -0.33000
C594        C  0.52687787  0.21463606  0.67353642     0.36100
H595        H  0.47887433  0.11546600  0.71250170     0.16500
O596        O  0.46449227  0.17471077  0.74075279    -0.60400
H597        H  0.53299366  0.28733463  0.67986861     0.16500
O598        O  0.54609638  0.22785327  0.65122372    -0.60500
H599        H  0.51824897  0.22630433  0.64161450     0.43500
H600        H  0.42756067  0.15629665  0.73815417     0.43400
C601        C  0.56424595  0.76671150  0.93797978    -0.05600
C602        C  0.58931339  0.74075390  0.93082609    -0.33100
C603        C  0.58235259  0.69747495  0.94303720     0.36200
C604        C  0.55174633  0.68118994  0.96327276    -0.06000
C605        C  0.52439593  0.70537687  0.96958854    -0.33000
C606        C  0.52976585  0.74739802  0.95680319     0.36100
H607        H  0.61555359  0.75502103  0.91620154     0.16500
O608        O  0.60977365  0.67469635  0.93654302    -0.60400
H609        H  0.50099216  0.69335613  0.98521936     0.16500
O610        O  0.50386218  0.77138127  0.96381804    -0.60500
H611        H  0.52634084  0.79689944  0.97564976     0.43500
H612        H  0.58867488  0.64919945  0.92493116     0.43400
C613        C  0.48507268  0.93038451  0.76787175    -0.05600
C614        C  0.44801122  0.88563346  0.75680512    -0.33100
C615        C  0.44330796  0.88216925  0.73194060     0.36200
C616        C  0.47519159  0.92413337  0.71743968    -0.06000
C617        C  0.51365787  0.96750191  0.72847348    -0.33000
C618        C  0.51935192  0.97060858  0.75298680     0.36100
H619        H  0.42198301  0.85342599  0.76742590     0.16500
O620        O  0.40547490  0.83861771  0.72215859    -0.60400
H621        H  0.53945197  0.00008010  0.71794693     0.16500
O622        O  0.55878120  0.01400190  0.76209531    -0.60500
H623        H  0.58752943  0.00687157  0.76343308     0.43500
H624        H  0.42091691  0.81708602  0.71935813     0.43400
C625        C  0.89628453  0.54618201  0.13816419    -0.05600
C626        C  0.90789047  0.56303136  0.11480451    -0.33100
C627        C  0.87316628  0.56956377  0.10105414     0.36200
C628        C  0.82560663  0.55726669  0.11037752    -0.06000
C629        C  0.81219912  0.53602479  0.13289341    -0.33000
C630        C  0.84731441  0.53080158  0.14689012     0.36100
H631        H  0.94544155  0.57538180  0.10786167     0.16500
O632        O  0.88655241  0.58951500  0.07884034    -0.60400
H633        H  0.77558918  0.52649139  0.14017949     0.16500
O634        O  0.83464673  0.51391657  0.16959996    -0.60500
H635        H  0.81563499  0.47656850  0.16860908     0.43500
H636        H  0.90699336  0.62702226  0.08099534     0.43400
C637        C  0.38538244  0.51635044  0.85590688    -0.05600
C638        C  0.37295971  0.49040006  0.87748242    -0.33100
C639        C  0.33121595  0.48458462  0.89033156     0.36200
C640        C  0.30244491  0.50623391  0.88196058    -0.06000
C641        C  0.31780735  0.53633187  0.86158487    -0.33000
C642        C  0.35839415  0.54057890  0.84826493     0.36100
H643        H  0.39272004  0.47073712  0.88333895     0.16500
O644        O  0.31706807  0.45531336  0.91034599    -0.60400
H645        H  0.29605115  0.55342476  0.85508826     0.16500
O646        O  0.37007653  0.56652685  0.82729007    -0.60500
H647        H  0.34453634  0.54285907  0.81596624     0.43500
H648        H  0.33601319  0.47913280  0.92319101     0.43400
C649        C  0.14151906  0.59629030  0.05201374    -0.05600
C650        C  0.18450198  0.60623772  0.06553105    -0.33100
C651        C  0.18386467  0.60837269  0.09042593     0.36200
C652        C  0.13969452  0.60032546  0.10242924    -0.06000
C653        C  0.09755577  0.59194885  0.08864650    -0.33000
C654        C  0.09819790  0.59012453  0.06409680     0.36100
H655        H  0.21804144  0.61037972  0.05687310     0.16500
O656        O  0.22599779  0.61643100  0.10276561    -0.60400
H657        H  0.06314697  0.58660580  0.09689606     0.16500
O658        O  0.05526495  0.58109900  0.05208170    -0.60500
H659        H  0.06130972  0.61496713  0.04703823     0.43500
H660        H  0.24694571  0.65408569  0.10419083     0.43400
C661        C  0.36240100  0.79095982  0.89800094    -0.05600
C662        C  0.32283587  0.75356353  0.88497379    -0.33100
C663        C  0.28155585  0.71276706  0.89640592     0.36200
C664        C  0.27990120  0.70803546  0.92144062    -0.06000
C665        C  0.31569350  0.74918394  0.93432909    -0.33000
C666        C  0.35598599  0.79079441  0.92283779     0.36100
H667        H  0.32568257  0.75351468  0.86603804     0.16500
O668        O  0.24401475  0.67605096  0.88285389    -0.60400
H669        H  0.31480933  0.74755112  0.95332193     0.16500
O670        O  0.39149413  0.82933577  0.93635605    -0.60500
H671        H  0.38027847  0.85505671  0.93688408     0.43500
H672        H  0.25978529  0.65741797  0.87526688     0.43400
C673        C  0.88975963  0.25050176  0.92942805    -0.05600
C674        C  0.89934061  0.21708543  0.91634563    -0.33100
C675        C  0.86627403  0.18700751  0.89876208     0.36200
C676        C  0.82207633  0.18936911  0.89372299    -0.06000
C677        C  0.81261689  0.22357097  0.90629165    -0.33000
C678        C  0.84602929  0.25392403  0.92413053     0.36100
H679        H  0.93298381  0.21419358  0.91973101     0.16500
O680        O  0.87669230  0.15387051  0.88708069    -0.60400
H681        H  0.77823439  0.22514082  0.90301246     0.16500
O682        O  0.83628214  0.28761752  0.93573333    -0.60500
H683        H  0.81584274  0.26877518  0.94944891     0.43500
H684        H  0.89271825  0.17149325  0.87192852     0.43400
C685        C  0.29480762  0.29461148  0.68585905    -0.05600
C686        C  0.31161093  0.27450943  0.66832508    -0.33100
C687        C  0.30800700  0.28508021  0.64477327     0.36200
C688        C  0.28805786  0.31716428  0.63858281    -0.06000
C689        C  0.26346671  0.32969125  0.65581625    -0.33000
C690        C  0.26564186  0.31757827  0.67933730     0.36100
H691        H  0.33176073  0.25443936  0.67284146     0.16500
O692        O  0.32761085  0.26693830  0.62822313    -0.60400
H693        H  0.24562003  0.35200851  0.65134293     0.16500
O694        O  0.24368819  0.33322162  0.69584186    -0.60500
H695        H  0.20871135  0.30385059  0.69801495     0.43500
H696        H  0.36499608  0.28977654  0.62882781     0.43400
C697        C  0.44017644  0.79007358  0.58594753    -0.05600
C698        C  0.47031312  0.77077788  0.59483242    -0.33100
C699        C  0.48041022  0.73827086  0.58104721     0.36200
C700        C  0.45971373  0.72400255  0.55808093    -0.06000
C701        C  0.43663297  0.74969531  0.54809728    -0.33000
C702        C  0.42721858  0.78265716  0.56166207     0.36100
H703        H  0.48221212  0.77702145  0.61301234     0.16500
O704        O  0.50647327  0.71648245  0.59092297    -0.60400
H705        H  0.42051428  0.73982591  0.53065175     0.16500
O706        O  0.40099807  0.80386530  0.55143065    -0.60500
H707        H  0.42722001  0.83950099  0.54752528     0.43500
H708        H  0.48319545  0.69192186  0.60297072     0.43400
C709        C  0.36461781  0.17377429  0.59332903    -0.05600
C710        C  0.40974488  0.21204361  0.58315250    -0.33100
C711        C  0.40884700  0.24619446  0.56641066     0.36200
C712        C  0.36240950  0.24287768  0.55981898    -0.06000
C713        C  0.31765381  0.20542229  0.57053261    -0.33000
C714        C  0.31842718  0.17097200  0.58688094     0.36100
H715        H  0.44559078  0.21437537  0.58756015     0.16500
O716        O  0.45375662  0.28407908  0.55746011    -0.60400
H717        H  0.28168117  0.20294710  0.56625873     0.16500
O718        O  0.27349025  0.13423513  0.59638555    -0.60500
H719        H  0.26955284  0.14860880  0.61089302     0.43500
H720        H  0.46010327  0.26966223  0.54340957     0.43400
C721        C  0.47201762  0.59673933  0.38159204    -0.05600
C722        C  0.46560063  0.63255549  0.39462510    -0.33100
C723        C  0.45901731  0.62780733  0.41935144     0.36200
C724        C  0.45842229  0.58656083  0.43149664    -0.06000
C725        C  0.46217238  0.54972498  0.41797273    -0.33000
C726        C  0.46885630  0.55448130  0.39363683     0.36100
H727        H  0.46798416  0.66548576  0.38580375     0.16500
O728        O  0.45419427  0.66413139  0.43135861    -0.60400
H729        H  0.46066271  0.51671862  0.42630075     0.16500
O730        O  0.47340507  0.51768975  0.38179863    -0.60500
H731        H  0.43914419  0.49415057  0.37595200     0.43500
H732        H  0.48944301  0.68960178  0.43612489     0.43400
C733        C  0.28291810  0.61649548  0.23015583    -0.05600
C734        C  0.28449964  0.61137385  0.25494192    -0.33100
C735        C  0.32691151  0.61435246  0.26633119     0.36200
C736        C  0.36784669  0.61988748  0.25295707    -0.06000
C737        C  0.36238417  0.61638731  0.22814102    -0.33000
C738        C  0.32122809  0.61622170  0.21676082     0.36100
H739        H  0.25466833  0.60997172  0.26584204     0.16500
O740        O  0.33006386  0.61761408  0.29030715    -0.60400
H741        H  0.39254415  0.61853240  0.21723969     0.16500
O742        O  0.32135687  0.62037968  0.19278171    -0.60500
H743        H  0.34219872  0.65706329  0.18934582     0.43500
H744        H  0.31601334  0.58196815  0.29597898     0.43400
C745        C  0.89178553  0.68841952  0.22879603    -0.05600
C746        C  0.85575056  0.64343635  0.24004948    -0.33100
C747        C  0.82511799  0.64495563  0.25815306     0.36200
C748        C  0.82955591  0.69178204  0.26469245    -0.06000
C749        C  0.86607251  0.73645536  0.25355075    -0.33000
C750        C  0.89722162  0.73517565  0.23603605     0.36100
H751        H  0.85250990  0.60738505  0.23534224     0.16500
O752        O  0.78963176  0.60043493  0.26852386    -0.60400
H753        H  0.87011576  0.77284460  0.25827781     0.16500
O754        O  0.93400324  0.78032729  0.22657809    -0.60500
H755        H  0.92486357  0.77988097  0.20984344     0.43500
H756        H  0.80722482  0.59542508  0.28210161     0.43400
C757        C  0.76583336  0.77950085  0.18352814    -0.05600
C758        C  0.74594555  0.79856834  0.16659490    -0.33100
C759        C  0.74862493  0.78981429  0.14284982     0.36200
C760        C  0.77250501  0.76222571  0.13560209    -0.06000
C761        C  0.79847753  0.74945651  0.15229895    -0.33000
C762        C  0.79559703  0.75814695  0.17611239     0.36100
H763        H  0.72413030  0.81635856  0.17176099     0.16500
O764        O  0.72404794  0.80486355  0.12719204    -0.60400
H765        H  0.81808975  0.72940288  0.14712766     0.16500
O766        O  0.81817849  0.74127304  0.19195479    -0.60500
H767        H  0.84742359  0.77240378  0.19807012     0.43500
H768        H  0.68806169  0.77843456  0.12798263     0.43400
C769        C  0.47049750  0.29887587  0.43356481    -0.05600
C770        C  0.42704425  0.30112990  0.43995646    -0.33100
C771        C  0.43105438  0.34104904  0.45344908     0.36200
C772        C  0.47895915  0.37980022  0.46058103    -0.06000
C773        C  0.52272262  0.37982574  0.45302878    -0.33000
C774        C  0.51883947  0.33980932  0.43939803     0.36100
H775        H  0.38958314  0.27088729  0.43525416     0.16500
O776        O  0.38782402  0.34136790  0.46012194    -0.60400
H777        H  0.55972462  0.40952720  0.45862314     0.16500
O778        O  0.56233626  0.33942427  0.43339965    -0.60500
H779        H  0.57327506  0.35833234  0.41841160     0.43500
H780        H  0.37428284  0.31745817  0.47370635     0.43400
C781        C  0.30152571  0.83014651  0.27621077    -0.05600
C782        C  0.31684762  0.81518710  0.29655563    -0.33100
C783        C  0.35923449  0.85060163  0.30916213     0.36200
C784        C  0.38793073  0.90102905  0.30083550    -0.06000
C785        C  0.37507152  0.91447568  0.27931139    -0.33000
C786        C  0.33169115  0.87954266  0.26717784     0.36100
H787        H  0.29404859  0.77701038  0.30350300     0.16500
O788        O  0.37129468  0.83625226  0.33003867    -0.60400
H789        H  0.39612668  0.95327686  0.27287912     0.16500
O790        O  0.31753902  0.89471819  0.24714499    -0.60500
H791        H  0.33691587  0.89038119  0.23439332     0.43500
H792        H  0.34642981  0.83545174  0.34162779     0.43400
C793        C  0.29460448  0.03418546  0.46884282    -0.05600
C794        C  0.30307427  0.07210852  0.48500830    -0.33100
C795        C  0.29156155  0.05974456  0.50872583     0.36200
C796        C  0.27231980  0.00883674  0.51641178    -0.06000
C797        C  0.25537622  0.97040917  0.49967140    -0.33000
C798        C  0.26573354  0.98261006  0.47597772     0.36100
H799        H  0.32242601  0.11174080  0.47972123     0.16500
O800        O  0.30258292  0.09807473  0.52437297    -0.60400
H801        H  0.23847586  0.93092579  0.50502779     0.16500
O802        O  0.25187923  0.94363579  0.46040659    -0.60500
H803        H  0.22112654  0.93964294  0.45269942     0.43500
H804        H  0.33995175  0.11714285  0.52567067     0.43400
C805        C  0.76518768  0.01826772  0.96867619    -0.05600
C806        C  0.74618415  0.97731146  0.98456480    -0.33100
C807        C  0.75094284  0.98589753  0.00874146     0.36200
C808        C  0.77492187  0.03628750  0.01721100    -0.06000
C809        C  0.80193345  0.07639775  0.00133008    -0.33000
C810        C  0.79775297  0.06772279  0.97719890     0.36100
H811        H  0.72323876  0.93870497  0.97844456     0.16500
O812        O  0.72833557  0.94483748  0.02374463    -0.60400
H813        H  0.82264590  0.11522962  0.00743155     0.16500
O814        O  0.82125376  0.10872517  0.96226785    -0.60500
H815        H  0.85152443  0.10832028  0.95659335     0.43500
H816        H  0.69230113  0.93320129  0.02306737     0.43400
C817        C  0.90950884  0.38817558  0.02167542    -0.05600
C818        C  0.92451177  0.35519347  0.03150612    -0.33100
C819        C  0.88951110  0.31046506  0.04290808     0.36200
C820        C  0.83812835  0.29783522  0.04462860    -0.06000
C821        C  0.82378649  0.33248541  0.03578729    -0.33000
C822        C  0.85905495  0.37716015  0.02414172     0.36100
H823        H  0.96312205  0.36283753  0.02922362     0.16500
O824        O  0.90580684  0.27861243  0.05155701    -0.60400
H825        H  0.78470769  0.32388210  0.03695264     0.16500
O826        O  0.84323751  0.40817284  0.01403547    -0.60500
H827        H  0.84934372  0.43399733  0.02608450     0.43500
H828        H  0.91376107  0.28788510  0.06832770     0.43400
C829        C  0.57801827  0.14496591  0.21278976    -0.05600
C830        C  0.61202006  0.18760691  0.22606731    -0.33100
C831        C  0.60741046  0.18856721  0.25087957     0.36200
C832        C  0.56835644  0.14635878  0.26300616    -0.06000
C833        C  0.53328920  0.10517090  0.24936037    -0.33000
C834        C  0.53790923  0.10404581  0.22492127     0.36100
H835        H  0.64352634  0.21943611  0.21735255     0.16500
O836        O  0.64266101  0.22984296  0.26308306    -0.60400
H837        H  0.50178039  0.07260613  0.25768507     0.16500
O838        O  0.50230934  0.06238458  0.21296522    -0.60500
H839        H  0.51127928  0.03540037  0.21589208     0.43500
H840        H  0.63217761  0.25612687  0.26108644     0.43400
C841        C  0.60908244  0.36211500  0.06109178    -0.05600
C842        C  0.59711324  0.35109694  0.08524110    -0.33100
C843        C  0.59941222  0.31082527  0.09650660     0.36200
C844        C  0.61258156  0.28012254  0.08347615    -0.06000
C845        C  0.61585884  0.28631558  0.05867644    -0.33000
C846        C  0.61505833  0.32725893  0.04758323     0.36100
H847        H  0.59075456  0.37681192  0.09592612     0.16500
O848        O  0.59229693  0.30431102  0.12029658    -0.60400
H849        H  0.62361292  0.26181250  0.04780955     0.16500
O850        O  0.62702160  0.33639301  0.02422270    -0.60500
H851        H  0.59388727  0.31977620  0.01591435     0.43500
H852        H  0.62587028  0.32728000  0.12727385     0.43400
C853        C  0.67188386  0.88123375  0.09572203    -0.05600
C854        C  0.62751824  0.84574436  0.08412249    -0.33100
C855        C  0.62990775  0.81566401  0.06599706     0.36200
C856        C  0.67706875  0.82075090  0.05953663    -0.06000
C857        C  0.72080790  0.85545376  0.07164037    -0.33000
C858        C  0.71853669  0.88531910  0.08945056     0.36100
H859        H  0.59147319  0.84299887  0.08834820     0.16500
O860        O  0.58598415  0.78050114  0.05533230    -0.60400
H861        H  0.75735369  0.85949515  0.06728085     0.16500
O862        O  0.76280161  0.92012535  0.10005169    -0.60500
H863        H  0.76373170  0.90432257  0.11523296     0.43500
H864        H  0.58084476  0.79901688  0.04213002     0.43400
C865        C  0.56372003  0.83569144  0.20782017    -0.05600
C866        C  0.59297949  0.88796536  0.21194963    -0.33100
C867        C  0.58235495  0.92234762  0.20030313     0.36200
C868        C  0.54290455  0.90471931  0.18375596    -0.06000
C869        C  0.51231378  0.85234986  0.18019193    -0.33000
C870        C  0.52195293  0.81769618  0.19242985     0.36100
H871        H  0.62491647  0.90229676  0.22389095     0.16500
O872        O  0.61399737  0.97344043  0.20341105    -0.60400
H873        H  0.48256331  0.83852532  0.16708443     0.16500
O874        O  0.49225765  0.76671384  0.18822219    -0.60500
H875        H  0.50780688  0.75997926  0.17438576     0.43500
H876        H  0.59840346  0.98290847  0.21629244     0.43400
C877        C  0.01347632  0.75345625  0.35194987    -0.05600
C878        C  0.97588820  0.74059574  0.33487253    -0.33100
C879        C  0.98905360  0.75108466  0.31120686     0.36200
C880        C  0.04070882  0.77436679  0.30443467    -0.06000
C881        C  0.07809158  0.79476722  0.32179603    -0.33000
C882        C  0.06496369  0.78476617  0.34543819     0.36100
H883        H  0.93613130  0.71861317  0.33954051     0.16500
O884        O  0.95092806  0.73492898  0.29484988    -0.60400
H885        H  0.11790121  0.81472320  0.31707396     0.16500
O886        O  0.10317679  0.80284647  0.36179973    -0.60500
H887        H  0.11829649  0.78081981  0.36081314     0.43500
H888        H  0.93708037  0.69788739  0.29358103     0.43400
C889        C  0.75383738  0.54922809  0.37908163    -0.05600
C890        C  0.72544727  0.56969446  0.38861651    -0.33100
C891        C  0.68438106  0.56720420  0.37630576     0.36200
C892        C  0.67274546  0.54571448  0.35380742    -0.06000
C893        C  0.69879596  0.52180259  0.34509842    -0.33000
C894        C  0.73891992  0.52297820  0.35776769     0.36100
H895        H  0.73675549  0.58986805  0.40509940     0.16500
O896        O  0.66022854  0.59159488  0.38505563    -0.60400
H897        H  0.69040313  0.50544874  0.32771458     0.16500
O898        O  0.76585553  0.50206389  0.34832999    -0.60500
H899        H  0.79290279  0.52946658  0.33890571     0.43500
H900        H  0.63092699  0.56505152  0.39417227     0.43400
C901        C  0.76232710  0.34632553  0.42391175    -0.05600
C902        C  0.71396167  0.31902089  0.43372719    -0.33100
C903        C  0.67191251  0.28661615  0.41978091     0.36200
C904        C  0.67733176  0.28096554  0.39531166    -0.06000
C905        C  0.72660571  0.30278666  0.38630679    -0.33000
C906        C  0.76875583  0.33472182  0.40039451     0.36100
H907        H  0.70767997  0.32662025  0.45156820     0.16500
O908        O  0.62490407  0.26208184  0.43013362    -0.60400
H909        H  0.73230660  0.29841409  0.36792104     0.16500
O910        O  0.81579545  0.35920579  0.39010874    -0.60500
H911        H  0.83438119  0.34292003  0.39693550     0.43500
H912        H  0.61558694  0.28852817  0.43275441     0.43400
C913        C  0.16702785  0.80592211  0.42639426    -0.05600
C914        C  0.21053938  0.80248926  0.42115093    -0.33100
C915        C  0.24605472  0.83522891  0.40432661     0.36200
C916        C  0.23819113  0.87180623  0.39243314    -0.06000
C917        C  0.19437867  0.87433624  0.39739727    -0.33000
C918        C  0.15922390  0.84214224  0.41403166     0.36100
H919        H  0.21687426  0.77428840  0.42996197     0.16500
O920        O  0.28928111  0.83267212  0.40041519    -0.60400
H921        H  0.18829858  0.90306223  0.38892491     0.16500
O922        O  0.11739481  0.84702547  0.41825656    -0.60500
H923        H  0.12725022  0.87121998  0.43151802     0.43500
H924        H  0.31468109  0.85710123  0.41148790     0.43400
C925        C  0.20574604  0.74932486  0.55059339    -0.05600
C926        C  0.22476561  0.72344935  0.53737845    -0.33100
C927        C  0.19228507  0.68165616  0.52360057     0.36200
C928        C  0.13982175  0.66362654  0.52386671    -0.06000
C929        C  0.12041638  0.68733945  0.53821523    -0.33000
C930        C  0.15296563  0.73022462  0.55133304     0.36100
H931        H  0.26524515  0.73755926  0.53657659     0.16500
O932        O  0.21218252  0.65944948  0.50949941    -0.60400
H933        H  0.08012326  0.67445192  0.53813250     0.16500
O934        O  0.13299643  0.75423782  0.56414293    -0.60500
H935        H  0.12102324  0.73445862  0.57894672     0.43500
H936        H  0.22396999  0.68109201  0.49517724     0.43400
C937        C  0.01507657  0.28388198  0.80737125    -0.05600
C938        C  0.06682553  0.30880848  0.81354057    -0.33100
C939        C  0.08193884  0.31907463  0.83695219     0.36200
C940        C  0.04504948  0.30379667  0.85468760    -0.06000
C941        C  0.99365150  0.27213712  0.84870594    -0.33000
C942        C  0.97848924  0.26251331  0.82525260     0.36100
H943        H  0.09598611  0.32467464  0.80015783     0.16500
O944        O  0.13258572  0.34816599  0.84196822    -0.60400
H945        H  0.96442198  0.25827171  0.86205066     0.16500
O946        O  0.92778538  0.23443079  0.82003643    -0.60500
H947        H  0.91373095  0.25725832  0.82289004     0.43500
H948        H  0.14582411  0.32405063  0.84220273     0.43400
C949        C  0.78385023  0.45457466  0.73397113    -0.05600
C950        C  0.74831474  0.45971021  0.72036142    -0.33100
C951        C  0.70690421  0.46034364  0.73111618     0.36200
C952        C  0.69897678  0.45316039  0.75586257    -0.06000
C953        C  0.73825126  0.45563137  0.76956955    -0.33000
C954        C  0.78105177  0.45802026  0.75889499     0.36100
H955        H  0.75054834  0.45982073  0.70140286     0.16500
O956        O  0.67308081  0.46613506  0.71716285    -0.60400
H957        H  0.73447841  0.45237533  0.78848552     0.16500
O958        O  0.81837142  0.45988423  0.77322066    -0.60500
H959        H  0.84326484  0.49650300  0.77479188     0.43500
H960        H  0.65454652  0.43399966  0.70819354     0.43400
C961        C  0.16487168  0.36699952  0.72910032    -0.05600
C962        C  0.15446511  0.32495366  0.74343238    -0.33100
C963        C  0.18733044  0.32853613  0.76144744     0.36200
C964        C  0.23163890  0.37485453  0.76582585    -0.06000
C965        C  0.24241190  0.41729321  0.75168749    -0.33000
C966        C  0.20948555  0.41359020  0.73334816     0.36100
H967        H  0.12040748  0.28877360  0.74067761     0.16500
O968        O  0.17681048  0.28577570  0.77418133    -0.60400
H969        H  0.27754738  0.45264944  0.75413181     0.16500
O970        O  0.22141948  0.45557868  0.71974485    -0.60500
H971        H  0.20631676  0.47357048  0.72791384     0.43500
H972        H  0.15619035  0.28559231  0.78765600     0.43400
C973        C  0.67256630  0.17461507  0.80608547    -0.05600
C974        C  0.71145388  0.21851431  0.81665123    -0.33100
C975        C  0.75500047  0.25155362  0.80413164     0.36200
C976        C  0.76026085  0.24082740  0.78079791    -0.06000
C977        C  0.71998510  0.19963222  0.76951995    -0.33000
C978        C  0.67579124  0.16681778  0.78194811     0.36100
H979        H  0.70960848  0.22555291  0.83512809     0.16500
O980        O  0.79381537  0.29217904  0.81532639    -0.60400
H981        H  0.72360031  0.19185015  0.75133134     0.16500
O982        O  0.63837057  0.12488675  0.77091371    -0.60500
H983        H  0.61775643  0.13713659  0.76249538     0.43500
H984        H  0.78633395  0.32013210  0.81339396     0.43400
C985        C  0.91407138  0.46002161  0.60350946    -0.05600
C986        C  0.95014365  0.45794760  0.58875239    -0.33100
C987        C  0.94626896  0.45796481  0.56422842     0.36200
C988        C  0.90595446  0.46070840  0.55317641    -0.06000
C989        C  0.86840492  0.46075864  0.56768400    -0.33000
C990        C  0.87216800  0.46035334  0.59257455     0.36100
H991        H  0.98218290  0.45631440  0.59623041     0.16500
O992        O  0.98335754  0.45657700  0.55110582    -0.60400
H993        H  0.83733582  0.46349456  0.55976894     0.16500
O994        O  0.83525459  0.46141754  0.60589957    -0.60500
H995        H  0.84762244  0.49811696  0.60871507     0.43500
H996        H  0.96868410  0.42088581  0.54615603     0.43400
C997        C  0.17230076  0.52864147  0.64112040    -0.05600
C998        C  0.17245742  0.53419394  0.61662315    -0.33100
C999        C  0.21342903  0.53909412  0.60328170     0.36200
C1000       C  0.25459572  0.53866286  0.61453008    -0.06000
C1001       C  0.25759698  0.54036073  0.63897142    -0.33000
C1002       C  0.21698865  0.53562619  0.65233165     0.36100
H1003       H  0.13885370  0.52942899  0.60765460     0.16500
O1004       O  0.21011985  0.53814762  0.57927593    -0.60400
H1005       H  0.28945931  0.54062164  0.64776928     0.16500
O1006       O  0.21982468  0.53393886  0.67634799    -0.60500
H1007       H  0.21668252  0.50083740  0.68005363     0.43500
H1008       H  0.23342289  0.57350475  0.57409547     0.43400
loop_ 
_geom_bond_atom_site_label_1 
_geom_bond_atom_site_label_2 
_geom_bond_distance 
_geom_bond_site_symmetry_2 
_ccdc_geom_bond_type 
O1           Mg3   2.083       .  S
O1           Mg9   2.130       .  S
O1           C36   1.234       .  S
C2           O15   1.241       .  S
C2           O39   1.279   1_655  A
C2           H41   1.081       .  S
Mg3          O32   2.134       .  S
Mg3          O47   2.285       .  S
Mg3          O43   2.142       .  S
Mg3          O14   2.287       .  S
O4          Mg46   2.185       .  S
O4          Mg29   2.216       .  S
O4           C25   1.267       .  A
O5           C36   1.264   1_455  A
O5          Mg29   2.270       .  S
C6            O8   1.288       .  A
C6           O20   1.281       .  A
C6          C985   1.516       .  S
O7           C35   1.272       .  A
O7           Mg9   2.295       .  S
O8          Mg40   2.368       .  S
Mg9          O15   2.110       .  S
Mg9          O23   2.261       .  S
Mg9          O11   2.331       .  S
C10          O48   1.275       .  A
C10          O16   1.267       .  A
C10         C997   1.482       .  S
O11          C18   1.280   1_655  A
H12          C25   1.081       .  S
C13          O28   1.278       .  A
C13          H38   1.081       .  S
C13          O27   1.266       .  A
O14          C37   1.272       .  A
O15         Mg29   2.130   1_655  S
O16         Mg46   2.272       .  S
C17          O30   1.266       .  A
C17          O22   1.255       .  A
C17         C961   1.485       .  S
C18          O45   1.267       .  A
C18         C937   1.479       .  S
Mg19         O26   2.140   1_455  S
Mg19         O20   2.327   1_455  S
Mg19         O21   2.358       .  S
Mg19         O48   2.315       .  S
Mg19         O27   2.193   1_455  S
O21          C25   1.279       .  A
O22         Mg29   2.228       .  S
O23          C42   1.272       .  A
O24          C44   1.298       .  A
O24         Mg40   2.482       .  S
O26         Mg40   2.156       .  S
O26          C37   1.239       .  S
O27         Mg46   2.235   1_655  S
O28         Mg40   2.349       .  S
Mg29         O45   2.203       .  S
O30         Mg46   2.330       .  S
H31          C36   1.081       .  S
O32         Mg40   2.153       .  S
O32          C35   1.240       .  S
H33          C35   1.081       .  S
H34          C37   1.081       .  S
O39         Mg46   2.337       .  S
C42          O47   1.271       .  A
C42         C976   1.461       .  S
O43          C44   1.258       .  A
C44         C949   1.505       .  S
O49         Mg51   2.088       .  S
O49         Mg57   2.138       .  S
O49          C84   1.233       .  S
C50          O63   1.239       .  S
C50          O87   1.277   1_655  A
C50          H89   1.081       .  S
Mg51         O80   2.136       .  S
Mg51         O95   2.299       .  S
Mg51         O91   2.160       .  S
Mg51         O62   2.296       .  S
O52         Mg94   2.186       .  S
O52         Mg77   2.201       .  S
O52          C73   1.266       .  A
O53          C84   1.263   1_455  A
O53         Mg77   2.265       .  S
C54          O56   1.288       .  A
C54          O68   1.275       .  A
C54         C988   1.508       .  S
O55          C83   1.270       .  A
O55         Mg57   2.288       .  S
O56         Mg88   2.381       .  S
Mg57         O63   2.103       .  S
Mg57         O71   2.245       .  S
Mg57         O59   2.339       .  S
C58          O96   1.270       .  A
C58          O64   1.263       .  A
C58         C928   1.470       .  S
O59          C66   1.281       .  A
H60          C73   1.081       .  S
C61          O76   1.279       .  A
C61          H86   1.081       .  S
C61          O75   1.266       .  A
O62          C85   1.274       .  A
O63         Mg77   2.133   1_655  S
O64         Mg94   2.265       .  S
C65          O78   1.270       .  A
C65          O70   1.253       .  A
C65         C913   1.491       .  S
C66          O93   1.263   1_655  A
C66         C877   1.478   1_655  S
Mg67         O74   2.156   1_455  S
Mg67         O68   2.293   1_455  S
Mg67         O69   2.358       .  S
Mg67         O96   2.309       .  S
Mg67         O75   2.208   1_455  S
O69          C73   1.278       .  A
O70         Mg77   2.221       .  S
O71          C90   1.272       .  A
O72          C92   1.300       .  A
O72         Mg88   2.490       .  S
O74         Mg88   2.177       .  S
O74          C85   1.240       .  S
O75         Mg94   2.275   1_655  S
O76         Mg88   2.356       .  S
Mg77         O93   2.171       .  S
O78         Mg94   2.357       .  S
H79          C84   1.081       .  S
O80         Mg88   2.144       .  S
O80          C83   1.238       .  S
H81          C83   1.081       .  S
H82          C85   1.081       .  S
O87         Mg94   2.332       .  S
C90          O95   1.274       .  A
C90         C889   1.463       .  S
O91          C92   1.261       .  A
C92         C901   1.501       .  S
O97         Mg99   2.081       .  S
O97        Mg105   2.126       .  S
O97         C132   1.234       .  S
C98         O111   1.241       .  S
C98         O135   1.279       .  A
C98         H137   1.081       .  S
Mg99        O128   2.125       .  S
Mg99        O143   2.325       .  S
Mg99        O139   2.147       .  S
Mg99        O110   2.298       .  S
O100       Mg142   2.184   1_545  S
O100       Mg125   2.213       .  S
O100        C121   1.267   1_545  A
O101        C132   1.264       .  A
O101       Mg125   2.267       .  S
C102        O104   1.285       .  A
C102        O116   1.277       .  A
C102        C829   1.511       .  S
O103        C131   1.271       .  A
O103       Mg105   2.294       .  S
O104       Mg136   2.363       .  S
Mg105       O111   2.107       .  S
Mg105       O119   2.257       .  S
Mg105       O107   2.326       .  S
C106        O144   1.270       .  A
C106        O112   1.261       .  A
C106        C868   1.463       .  S
O107        C114   1.280       .  A
H108        C121   1.081       .  S
C109        O124   1.277       .  A
C109        H134   1.081       .  S
C109        O123   1.265       .  A
O110        C133   1.275       .  A
O111       Mg125   2.136       .  S
O112       Mg142   2.268       .  S
C113        O126   1.267       .  A
C113        O118   1.254       .  A
C113        C853   1.473       .  S
C114        O141   1.268       .  A
C114        C808   1.482       .  S
Mg115       O122   2.137       .  S
Mg115       O116   2.313       .  S
Mg115       O117   2.365   1_545  S
Mg115       O144   2.303   1_545  S
Mg115       O123   2.203       .  S
O117        C121   1.280       .  A
O118       Mg125   2.227   1_565  S
O119        C138   1.274       .  A
O120        C140   1.293       .  A
O120       Mg136   2.437       .  S
O122       Mg136   2.164       .  S
O122        C133   1.241       .  S
O123       Mg142   2.245   1_545  S
O124       Mg136   2.342       .  S
Mg125       O141   2.213       .  S
O126       Mg142   2.326       .  S
H127        C132   1.081       .  S
O128       Mg136   2.157       .  S
O128        C131   1.238       .  S
H129        C131   1.081       .  S
H130        C133   1.081       .  S
O135       Mg142   2.337   1_545  S
C138        O143   1.278       .  A
C138        C820   1.487       .  S
O139        C140   1.261       .  A
C140        C844   1.495       .  S
O145       Mg147   2.114       .  S
O145       Mg153   2.159       .  S
O145        C180   1.234       .  S
C146        O159   1.238       .  S
C146        O183   1.273       .  A
C146        H185   1.081       .  S
Mg147       O176   2.092       .  S
Mg147       O191   2.299       .  S
Mg147       O187   2.197       .  S
Mg147       O158   2.336       .  S
O148       Mg190   2.111   1_545  S
O148       Mg173   2.126       .  S
O148        C169   1.239   1_545  S
O149        C180   1.266       .  A
O149       Mg173   2.281       .  S
C150        O152   1.286       .  A
C150        O164   1.277       .  A
C150        C832   1.517       .  S
O151        C179   1.270       .  A
O151       Mg153   2.301       .  S
O152       Mg184   2.373       .  S
Mg153       O159   2.101       .  S
Mg153       O167   2.233       .  S
Mg153       O155   2.334       .  S
C154        O192   1.271       .  A
C154        O160   1.262       .  A
C154        C784   1.472       .  S
O155        C162   1.279       .  A
H156        C169   1.081       .  S
C157        O172   1.281       .  A
C157        H182   1.081       .  S
C157        O171   1.269       .  A
O158        C181   1.279       .  A
O159       Mg173   2.126       .  S
O160       Mg190   2.268       .  S
C161        O174   1.270       .  A
C161        O166   1.258       .  A
C161        C916   1.480       .  S
C162        O189   1.262       .  A
C162        C793   1.480       .  S
Mg163       O170   2.142       .  S
Mg163       O164   2.308       .  S
Mg163       O165   2.339       .  S
Mg163       O192   2.307   1_545  S
Mg163       O171   2.202       .  S
O165        C169   1.278   1_545  A
O166       Mg173   2.245   1_565  S
O167        C186   1.271       .  A
O168        C188   1.292       .  A
O168       Mg184   2.485       .  S
O170       Mg184   2.129       .  S
O170        C181   1.241       .  S
O171       Mg190   2.263   1_545  S
O172       Mg184   2.360       .  S
Mg173       O189   2.188       .  S
O174       Mg190   2.333       .  S
H175        C180   1.081       .  S
O176       Mg184   2.174       .  S
O176        C179   1.236       .  S
H177        C179   1.081       .  S
H178        C181   1.081       .  S
O183       Mg190   2.314   1_545  S
C186        O191   1.274       .  A
C186        C769   1.479       .  S
O187        C188   1.256       .  A
C188        C904   1.509       .  S
O193       Mg195   2.071       .  S
O193       Mg201   2.132       .  S
O193        C228   1.234       .  S
C194        O207   1.241       .  S
C194        O231   1.280       .  A
C194        H233   1.081       .  S
Mg195       O224   2.133       .  S
Mg195       O239   2.289       .  S
Mg195       O235   2.137       .  S
Mg195       O206   2.286       .  S
O196       Mg238   2.181       .  S
O196       Mg221   2.206       .  S
O196        C217   1.266       .  A
O197        C228   1.264       .  A
O197       Mg221   2.269       .  S
C198        O200   1.283       .  A
C198        O212   1.278       .  A
C198        C721   1.500       .  S
O199        C227   1.270       .  A
O199       Mg201   2.285       .  S
O200       Mg232   2.338       .  S
Mg201       O207   2.113       .  S
Mg201       O215   2.260       .  S
Mg201       O203   2.301       .  S
C202        O240   1.271       .  A
C202        O208   1.265       .  A
C202        C892   1.466       .  S
O203        C210   1.277       .  A
H204        C217   1.081       .  S
C205        O220   1.277       .  A
C205        H230   1.081       .  S
C205        O219   1.265       .  A
O206        C229   1.271       .  A
O207       Mg221   2.137       .  S
O208       Mg238   2.282       .  S
C209        O222   1.266       .  A
C209        O214   1.255       .  A
C209        C748   1.477       .  S
C210        O237   1.267       .  A
C210        C757   1.477       .  S
Mg211       O218   2.130       .  S
Mg211       O212   2.308       .  S
Mg211       O213   2.357       .  S
Mg211       O240   2.293       .  S
Mg211       O219   2.193       .  S
O213        C217   1.278       .  A
O214       Mg221   2.232       .  S
O215        C234   1.274       .  A
O216        C236   1.293       .  A
O216       Mg232   2.435       .  S
O218       Mg232   2.162       .  S
O218        C229   1.239       .  S
O219       Mg238   2.233       .  S
O220       Mg232   2.341       .  S
Mg221       O237   2.207       .  S
O222       Mg238   2.320       .  S
H223        C228   1.081       .  S
O224       Mg232   2.139       .  S
O224        C227   1.238       .  S
H225        C227   1.081       .  S
H226        C229   1.081       .  S
O231       Mg238   2.339       .  S
C234        O239   1.272       .  A
C234        C865   1.472       .  S
O235        C236   1.259       .  A
C236        C736   1.492       .  S
O241       Mg243   2.100       .  S
O241       Mg249   2.133       .  S
O241        C276   1.233       .  S
C242        O255   1.237       .  S
C242        O279   1.275       .  A
C242        H281   1.081       .  S
Mg243       O272   2.137       .  S
Mg243       O287   2.327       .  S
Mg243       O283   2.159       .  S
Mg243       O254   2.295       .  S
O244       Mg286   2.114       .  S
O244       Mg269   2.145       .  S
O244        C265   1.240       .  S
O245        C276   1.265       .  A
O245       Mg269   2.277       .  S
C246        O248   1.287       .  A
C246        O260   1.273       .  A
C246        C724   1.512       .  S
O247        C275   1.270       .  A
O247       Mg249   2.296       .  S
O248       Mg280   2.384       .  S
Mg249       O255   2.114       .  S
Mg249       O263   2.246       .  S
Mg249       O251   2.341       .  S
C250        O288   1.268       .  A
C250        O256   1.265       .  A
C250        C772   1.460       .  S
O251        C258   1.280       .  A
H252        C265   1.081       .  S
C253        O268   1.277       .  A
C253        H278   1.081       .  S
C253        O267   1.264       .  A
O254        C277   1.273       .  A
O255       Mg269   2.129       .  S
O256       Mg286   2.260       .  S
C257        O270   1.269       .  A
C257        O262   1.256       .  A
C257        C712   1.488       .  S
C258        O285   1.262       .  A
C258        C688   1.479       .  S
Mg259       O266   2.147       .  S
Mg259       O260   2.271       .  S
Mg259       O261   2.343       .  S
Mg259       O288   2.289       .  S
Mg259       O267   2.208       .  S
O261        C265   1.279       .  A
O262       Mg269   2.240       .  S
O263        C282   1.273       .  A
O264        C284   1.296       .  A
O264       Mg280   2.461       .  S
O266       Mg280   2.181       .  S
O266        C277   1.240       .  S
O267       Mg286   2.249       .  S
O268       Mg280   2.347       .  S
Mg269       O285   2.184       .  S
O270       Mg286   2.339       .  S
H271        C276   1.081       .  S
O272       Mg280   2.154       .  S
O272        C275   1.237       .  S
H273        C275   1.081       .  S
H274        C277   1.081       .  S
O279       Mg286   2.327       .  S
C282        O287   1.276       .  A
C282       C1000   1.467       .  S
O283        C284   1.261       .  A
C284        C700   1.494       .  S
O289       Mg291   2.082       .  S
O289       Mg297   2.133       .  S
O289        C324   1.233       .  S
C290        O303   1.240       .  S
C290        O327   1.278       .  A
C290        H329   1.081       .  S
Mg291       O320   2.127       .  S
Mg291       O335   2.305       .  S
Mg291       O331   2.144       .  S
Mg291       O302   2.301       .  S
O292       Mg334   2.187   1_455  S
O292       Mg317   2.200       .  S
O292        C313   1.266   1_455  A
O293        C324   1.264       .  A
O293       Mg317   2.268       .  S
C294        O296   1.288       .  A
C294        O308   1.275       .  A
C294        C649   1.509       .  S
O295        C323   1.272       .  A
O295       Mg297   2.297       .  S
O296       Mg328   2.377   1_554  S
Mg297       O303   2.106       .  S
Mg297       O311   2.253       .  S
Mg297       O299   2.335       .  S
C298        O336   1.269       .  A
C298        O304   1.258   1_554  A
C298        C817   1.466       .  S
O299        C306   1.280       .  A
H300        C313   1.081       .  S
C301        O316   1.279   1_554  A
C301        H326   1.081       .  S
C301        O315   1.266   1_554  A
O302        C325   1.274       .  A
O303       Mg317   2.133       .  S
O304       Mg334   2.252       .  S
C305        O318   1.267       .  A
C305        O310   1.255       .  A
C305        C673   1.486       .  S
C306        O333   1.266       .  A
C306        C940   1.480       .  S
Mg307       O314   2.148       .  S
Mg307       O308   2.290   1_556  S
Mg307       O309   2.359   1_455  S
Mg307       O336   2.322   1_456  S
Mg307       O315   2.210       .  S
O309        C313   1.279       .  A
O310       Mg317   2.225   1_655  S
O311        C330   1.272       .  A
O312        C332   1.299       .  A
O312       Mg328   2.479       .  S
O314       Mg328   2.164       .  S
O314        C325   1.239       .  S
O315       Mg334   2.258   1_455  S
O316       Mg328   2.350       .  S
Mg317       O333   2.191       .  S
O318       Mg334   2.332       .  S
H319        C324   1.081       .  S
O320       Mg328   2.156       .  S
O320        C323   1.239       .  S
H321        C323   1.081       .  S
H322        C325   1.081       .  S
O327       Mg334   2.333   1_455  S
C330        O335   1.274       .  A
C330        C640   1.468       .  S
O331        C332   1.259       .  A
C332        C664   1.501       .  S
O337       Mg339   2.080       .  S
O337       Mg345   2.131       .  S
O337        C372   1.233       .  S
C338        O351   1.239       .  S
C338        O375   1.277       .  A
C338        H377   1.081       .  S
Mg339       O368   2.134       .  S
Mg339       O383   2.304       .  S
Mg339       O379   2.133       .  S
Mg339       O350   2.290       .  S
O340       Mg382   2.115   1_455  S
O340       Mg365   2.154       .  S
O340        C361   1.240   1_455  S
O341        C372   1.264       .  A
O341       Mg365   2.278       .  S
C342        O344   1.287       .  A
C342        O356   1.277       .  A
C342        C652   1.515       .  S
O343        C371   1.271       .  A
O343       Mg345   2.293       .  S
O344       Mg376   2.372       .  S
Mg345       O351   2.107       .  S
Mg345       O359   2.258       .  S
Mg345       O347   2.337       .  S
C346        O384   1.271       .  A
C346        O352   1.265       .  A
C346        C625   1.473       .  S
O347        C354   1.281       .  A
H348        C361   1.081       .  S
C349        O364   1.276       .  A
C349        H374   1.081       .  S
C349        O363   1.265       .  A
O350        C373   1.273       .  A
O351       Mg365   2.122       .  S
O352       Mg382   2.276       .  S
C353        O366   1.264       .  A
C353        O358   1.250       .  A
C353        C745   1.474       .  S
C354        O381   1.263       .  A
C354        C880   1.479       .  S
Mg355       O362   2.135       .  S
Mg355       O356   2.299       .  S
Mg355       O357   2.355   1_455  S
Mg355       O384   2.296   1_455  S
Mg355       O363   2.183       .  S
O357        C361   1.281       .  A
O358       Mg365   2.216   1_655  S
O359        C378   1.273       .  A
O360        C380   1.295       .  A
O360       Mg376   2.451       .  S
O362       Mg376   2.164       .  S
O362        C373   1.239       .  S
O363       Mg382   2.226   1_455  S
O364       Mg376   2.341       .  S
Mg365       O381   2.205       .  S
O366       Mg382   2.325       .  S
H367        C372   1.081       .  S
O368       Mg376   2.156       .  S
O368        C371   1.238       .  S
H369        C371   1.081       .  S
H370        C373   1.081       .  S
O375       Mg382   2.340   1_455  S
C378        O383   1.274       .  A
C378        C781   1.468       .  S
O379        C380   1.259       .  A
C380        C733   1.493       .  S
O385       Mg387   2.080       .  S
O385       Mg393   2.135       .  S
O385        C420   1.232       .  S
C386        O399   1.240   1_545  S
C386        O423   1.278       .  A
C386        H425   1.081   1_545  S
Mg387       O416   2.125       .  S
Mg387       O431   2.294       .  S
Mg387       O427   2.150       .  S
Mg387       O398   2.292       .  S
O388       Mg430   2.178       .  S
O388       Mg413   2.220       .  S
O388        C409   1.269       .  A
O389        C420   1.262   1_545  A
O389       Mg413   2.261       .  S
C390        O392   1.287       .  A
C390        O404   1.279       .  A
C390        C613   1.524       .  S
O391        C419   1.270       .  A
O391       Mg393   2.285       .  S
O392       Mg424   2.373       .  S
Mg393       O399   2.114       .  S
Mg393       O407   2.262       .  S
Mg393       O395   2.322       .  S
C394        O432   1.269       .  A
C394        O400   1.261       .  A
C394        C973   1.474       .  S
O395        C402   1.280   1_565  A
H396        C409   1.081       .  S
C397        O412   1.279       .  A
C397        H422   1.081       .  S
C397        O411   1.266   1_565  A
O398        C421   1.273       .  A
O399       Mg413   2.143   1_565  S
O400       Mg430   2.261       .  S
C401        O414   1.269       .  A
C401        O406   1.257       .  A
C401        C676   1.479       .  S
C402        O429   1.269       .  A
C402        C805   1.481       .  S
Mg403       O410   2.128   1_545  S
Mg403       O404   2.327   1_545  S
Mg403       O405   2.379       .  S
Mg403       O432   2.305       .  S
Mg403       O411   2.197       .  S
O405        C409   1.283       .  A
O406       Mg413   2.242       .  S
O407        C426   1.274       .  A
O408        C428   1.298       .  A
O408       Mg424   2.466       .  S
O410       Mg424   2.154       .  S
O410        C421   1.240       .  S
O411       Mg430   2.253       .  S
O412       Mg424   2.355       .  S
Mg413       O429   2.211       .  S
O414       Mg430   2.335       .  S
H415        C420   1.081       .  S
O416       Mg424   2.141       .  S
O416        C419   1.238       .  S
H417        C419   1.081       .  S
H418        C421   1.081       .  S
O423       Mg430   2.330       .  S
C426        O431   1.274       .  A
C426        C601   1.470       .  S
O427        C428   1.261       .  A
C428        C661   1.498       .  S
O433       Mg435   2.106       .  S
O433       Mg441   2.154       .  S
O433        C468   1.235       .  S
C434        O447   1.240       .  S
C434        O471   1.277   1_565  A
C434        H473   1.081       .  S
Mg435       O464   2.101       .  S
Mg435       O479   2.309       .  S
Mg435       O475   2.190       .  S
Mg435       O446   2.336       .  S
O436       Mg478   2.174       .  S
O436       Mg461   2.193       .  S
O436        C457   1.265       .  A
O437        C468   1.268       .  A
O437       Mg461   2.284   1_565  S
C438        O440   1.286       .  A
C438        O452   1.278       .  A
C438        C616   1.513       .  S
O439        C467   1.272       .  A
O439       Mg441   2.305       .  S
O440       Mg472   2.368       .  S
Mg441       O447   2.116       .  S
Mg441       O455   2.268       .  S
Mg441       O443   2.328       .  S
C442        O480   1.273       .  A
C442        O448   1.265       .  A
C442        C589   1.475       .  S
O443        C450   1.280       .  A
H444        C457   1.081       .  S
C445        O460   1.280       .  A
C445        H470   1.081       .  S
C445        O459   1.268   1_565  A
O446        C469   1.278       .  A
O447       Mg461   2.126   1_565  S
O448       Mg478   2.277       .  S
C449        O462   1.271       .  A
C449        O454   1.259       .  A
C449        C709   1.485       .  S
C450        O477   1.262   1_565  A
C450        C796   1.476   1_565  S
Mg451       O458   2.152   1_545  S
Mg451       O452   2.317   1_545  S
Mg451       O453   2.347       .  S
Mg451       O480   2.313       .  S
Mg451       O459   2.207       .  S
O453        C457   1.276       .  A
O454       Mg461   2.255       .  S
O455        C474   1.273       .  A
O456        C476   1.291       .  A
O456       Mg472   2.478       .  S
O458       Mg472   2.137       .  S
O458        C469   1.241       .  S
O459       Mg478   2.263       .  S
O460       Mg472   2.352       .  S
Mg461       O477   2.179       .  S
O462       Mg478   2.334       .  S
H463        C468   1.081       .  S
O464       Mg472   2.185       .  S
O464        C467   1.237       .  S
H465        C467   1.081       .  S
H466        C469   1.081       .  S
O471       Mg478   2.325       .  S
C474        O479   1.275       .  A
C474        C925   1.481       .  S
O475        C476   1.256       .  A
C476        C697   1.504       .  S
O481       Mg483   2.072       .  S
O481       Mg489   2.128       .  S
O481        C516   1.233       .  S
C482        O495   1.240       .  S
C482        O519   1.279       .  A
C482        H521   1.081       .  S
Mg483       O512   2.136       .  S
Mg483       O527   2.310       .  S
Mg483       O523   2.153       .  S
Mg483       O494   2.293       .  S
O484       Mg526   2.194       .  S
O484       Mg509   2.213       .  S
O484        C505   1.266       .  A
O485        C516   1.263       .  A
O485       Mg509   2.267       .  S
C486        O488   1.283       .  A
C486        O500   1.275       .  A
C486        C580   1.506       .  S
O487        C515   1.270       .  A
O487       Mg489   2.288       .  S
O488       Mg520   2.357   1_556  S
Mg489       O495   2.115       .  S
Mg489       O503   2.254       .  S
Mg489       O491   2.324       .  S
C490        O528   1.269       .  A
C490        O496   1.265   1_556  A
C490        C604   1.468       .  S
O491        C498   1.279       .  A
H492        C505   1.082       .  S
C493        O508   1.277       .  A
C493        H518   1.081       .  S
C493        O507   1.265       .  A
O494        C517   1.273       .  A
O495       Mg509   2.134       .  S
O496       Mg526   2.278       .  S
C497        O510   1.266       .  A
C497        O502   1.254       .  A
C497        C856   1.479       .  S
C498        O525   1.265       .  A
C498        C760   1.478       .  S
Mg499       O506   2.138       .  S
Mg499       O500   2.289   1_554  S
Mg499       O501   2.359       .  S
Mg499       O528   2.292   1_554  S
Mg499       O507   2.195   1_554  S
O501        C505   1.278       .  A
O502       Mg509   2.222       .  S
O503        C522   1.273       .  A
O504        C524   1.291       .  A
O504       Mg520   2.416       .  S
O506       Mg520   2.165       .  S
O506        C517   1.240       .  S
O507       Mg526   2.235   1_556  S
O508       Mg520   2.345   1_556  S
Mg509       O525   2.189       .  S
O510       Mg526   2.325       .  S
H511        C516   1.081       .  S
O512       Mg520   2.147       .  S
O512        C515   1.238       .  S
H513        C515   1.081       .  S
H514        C517   1.081       .  S
O519       Mg526   2.341       .  S
C522        O527   1.275       .  A
C522        C628   1.465       .  S
O523        C524   1.262       .  A
C524        C841   1.483       .  S
O529       Mg531   2.087       .  S
O529       Mg537   2.135       .  S
O529        C564   1.234       .  S
C530        O543   1.241       .  S
C530        O567   1.279       .  A
C530        H569   1.081       .  S
Mg531       O560   2.133       .  S
Mg531       O575   2.311       .  S
Mg531       O571   2.160       .  S
Mg531       O542   2.297       .  S
O532       Mg574   2.175       .  S
O532       Mg557   2.198       .  S
O532        C553   1.265       .  A
O533        C564   1.265       .  A
O533       Mg557   2.271       .  S
C534        O536   1.285       .  A
C534        O548   1.276       .  A
C534        C577   1.499       .  S
O535        C563   1.271       .  A
O535       Mg537   2.294       .  S
O536       Mg568   2.357       .  S
Mg537       O543   2.108       .  S
Mg537       O551   2.261       .  S
Mg537       O539   2.333       .  S
C538        O576   1.272       .  A
C538        O544   1.264       .  A
C538        C637   1.469       .  S
O539        C546   1.281       .  A
H540        C553   1.081       .  S
C541        O556   1.278       .  A
C541        H566   1.081       .  S
C541        O555   1.266       .  A
O542        C565   1.273       .  A
O543       Mg557   2.129       .  S
O544       Mg574   2.277       .  S
C545        O558   1.267       .  A
C545        O550   1.252       .  A
C545        C964   1.473       .  S
C546        O573   1.263       .  A
C546        C685   1.477       .  S
Mg547       O554   2.145       .  S
Mg547       O548   2.299       .  S
Mg547       O549   2.352       .  S
Mg547       O576   2.305       .  S
Mg547       O555   2.196       .  S
O549        C553   1.277       .  A
O550       Mg557   2.227       .  S
O551        C570   1.273       .  A
O552        C572   1.297       .  A
O552       Mg568   2.462       .  S
O554       Mg568   2.163       .  S
O554        C565   1.239       .  S
O555       Mg574   2.245       .  S
O556       Mg568   2.346       .  S
Mg557       O573   2.185       .  S
O558       Mg574   2.336       .  S
H559        C564   1.081       .  S
O560       Mg568   2.154       .  S
O560        C563   1.239       .  S
H561        C563   1.081       .  S
H562        C565   1.081       .  S
O567       Mg574   2.338       .  S
C570        O575   1.275       .  A
C570        C592   1.469       .  S
O571        C572   1.261       .  A
C572        C952   1.501       .  S
C577        C578   1.411       .  A
C577        C582   1.409       .  A
C578        H583   1.083       .  S
C578        C579   1.420       .  A
C579        C580   1.415       .  A
C579        O584   1.371       .  S
C580        C581   1.410       .  A
C581        H585   1.084       .  S
C581        C582   1.400       .  A
C582        O586   1.372       .  S
O584        H588   0.992       .  S
O586        H587   0.993       .  S
C589        C590   1.404       .  A
C589        C594   1.411       .  A
C590        H595   1.084       .  S
C590        C591   1.402       .  A
C591        C592   1.406       .  A
C591        O596   1.372       .  S
C592        C593   1.400       .  A
C593        H597   1.084       .  S
C593        C594   1.401       .  A
C594        O598   1.373       .  S
O596        H600   0.985       .  S
O598        H599   0.987       .  S
C601        C602   1.402       .  A
C601        C606   1.407       .  A
C602        H607   1.084       .  S
C602        C603   1.399       .  A
C603        C604   1.408       .  A
C603        O608   1.372       .  S
C604        C605   1.402       .  A
C605        H609   1.084       .  S
C605        C606   1.399       .  A
C606        O610   1.371       .  S
O608        H612   0.980       .  S
O610        H611   1.001       .  S
C613        C614   1.415       .  A
C613        C618   1.421       .  A
C614        H619   1.083       .  S
C614        C615   1.424       .  A
C615        C616   1.416       .  A
C615        O620   1.370       .  S
C616        C617   1.405       .  A
C617        H621   1.084   1_565  S
C617        C618   1.406       .  A
C618        O622   1.371   1_565  S
O620        H624   0.988       .  S
O622        H623   1.000       .  S
C625        C626   1.404       .  A
C625        C630   1.411       .  A
C626        H631   1.084       .  S
C626        C627   1.400       .  A
C627        C628   1.406       .  A
C627        O632   1.372       .  S
C628        C629   1.399       .  A
C629        H633   1.084       .  S
C629        C630   1.398       .  A
C630        O634   1.372       .  S
O632        H636   0.998       .  S
O634        H635   0.985       .  S
C637        C638   1.402       .  A
C637        C642   1.409       .  A
C638        H643   1.084       .  S
C638        C639   1.399       .  A
C639        C640   1.407       .  A
C639        O644   1.371       .  S
C640        C641   1.401       .  A
C641        H645   1.084       .  S
C641        C642   1.400       .  A
C642        O646   1.372       .  S
O644        H648   0.991       .  S
O646        H647   0.993       .  S
C649        C650   1.412       .  A
C649        C654   1.415       .  A
C650        H655   1.083       .  S
C650        C651   1.422       .  A
C651        C652   1.417       .  A
C651        O656   1.370       .  S
C652        C653   1.411       .  A
C653        H657   1.083       .  S
C653        C654   1.402       .  A
C654        O658   1.373       .  S
O656        H660   0.998       .  S
O658        H659   0.989       .  S
C661        C662   1.392       .  A
C661        C666   1.430       .  A
C662        H667   1.083       .  S
C662        C663   1.407       .  A
C663        C664   1.432       .  A
C663        O668   1.373       .  S
C664        C665   1.394       .  A
C665        H669   1.083       .  S
C665        C666   1.407       .  A
C666        O670   1.372       .  S
O668        H672   1.005       .  S
O670        H671   0.994       .  S
C673        C674   1.405       .  A
C673        C678   1.413       .  A
C674        H679   1.084       .  S
C674        C675   1.395       .  A
C675        C676   1.407       .  A
C675        O680   1.372       .  S
C676        C677   1.407       .  A
C677        H681   1.083       .  S
C677        C678   1.412       .  A
C678        O682   1.372       .  S
O680        H684   1.003       .  S
O682        H683   0.983       .  S
C685        C686   1.398       .  A
C685        C690   1.417       .  A
C686        H691   1.084       .  S
C686        C687   1.394       .  A
C687        C688   1.418       .  A
C687        O692   1.373       .  S
C688        C689   1.400       .  A
C689        H693   1.084       .  S
C689        C690   1.397       .  A
C690        O694   1.372       .  S
O692        H696   0.995       .  S
O694        H695   0.999       .  S
C697        C698   1.398       .  A
C697        C702   1.427       .  A
C698        H703   1.083       .  S
C698        C699   1.413       .  A
C699        C700   1.425       .  A
C699        O704   1.373       .  S
C700        C701   1.396       .  A
C701        H705   1.084       .  S
C701        C702   1.406       .  A
C702        O706   1.372       .  S
O704        H708   0.999       .  S
O706        H707   0.997       .  S
C709        C710   1.407       .  A
C709        C714   1.409       .  A
C710        H715   1.083       .  S
C710        C711   1.411       .  A
C711        C712   1.412       .  A
C711        O716   1.372       .  S
C712        C713   1.405       .  A
C713        H717   1.084       .  S
C713        C714   1.402       .  A
C714        O718   1.373       .  S
O716        H720   0.980       .  S
O718        H719   0.973       .  S
C721        C722   1.412       .  A
C721        C726   1.408       .  A
C722        H727   1.083       .  S
C722        C723   1.421       .  A
C723        C724   1.415       .  A
C723        O728   1.370       .  S
C724        C725   1.413       .  A
C725        H729   1.083       .  S
C725        C726   1.399       .  A
C726        O730   1.373       .  S
O728        H732   0.999       .  S
O730        H731   0.984       .  S
C733        C734   1.423       .  A
C733        C738   1.398       .  A
C734        H739   1.084       .  S
C734        C735   1.402       .  A
C735        C736   1.398       .  A
C735        O740   1.371       .  S
C736        C737   1.423       .  A
C737        H741   1.084       .  S
C737        C738   1.403       .  A
C738        O742   1.372       .  S
O740        H744   0.996       .  S
O742        H743   0.987       .  S
C745        C746   1.407       .  A
C745        C750   1.408       .  A
C746        H751   1.084       .  S
C746        C747   1.409       .  A
C747        C748   1.411       .  A
C747        O752   1.371       .  S
C748        C749   1.403       .  A
C749        H753   1.084       .  S
C749        C750   1.392       .  A
C750        O754   1.374       .  S
O752        H756   0.991       .  S
O754        H755   0.991       .  S
C757        C758   1.400       .  A
C757        C762   1.415       .  A
C758        H763   1.084       .  S
C758        C759   1.392       .  A
C759        C760   1.416       .  A
C759        O764   1.373       .  S
C760        C761   1.402       .  A
C761        H765   1.084       .  S
C761        C762   1.397       .  A
C762        O766   1.371       .  S
O764        H768   0.985       .  S
O766        H767   0.987       .  S
C769        C770   1.404       .  A
C769        C774   1.415       .  A
C770        H775   1.084       .  S
C770        C771   1.393       .  A
C771        C772   1.404       .  A
C771        O776   1.373       .  S
C772        C773   1.398       .  A
C773        H777   1.084       .  S
C773        C774   1.401       .  A
C774        O778   1.371       .  S
O776        H780   0.995       .  S
O778        H779   0.987       .  S
C781        C782   1.400       .  A
C781        C786   1.406       .  A
C782        H787   1.084       .  S
C782        C783   1.401       .  A
C783        C784   1.411       .  A
C783        O788   1.372       .  S
C784        C785   1.403       .  A
C785        H789   1.084       .  S
C785        C786   1.399       .  A
C786        O790   1.372       .  S
O788        H792   0.996       .  S
O790        H791   0.987       .  S
C793        C794   1.401       .  A
C793        C798   1.418   1_545  A
C794        H799   1.083       .  S
C794        C795   1.398       .  A
C795        C796   1.418       .  A
C795        O800   1.374       .  S
C796        C797   1.398   1_545  A
C797        H801   1.084       .  S
C797        C798   1.393       .  A
C798        O802   1.373       .  S
O800        H804   0.988       .  S
O802        H803   0.982       .  S
C805        C806   1.403   1_545  A
C805        C810   1.415       .  A
C806        H811   1.083       .  S
C806        C807   1.399   1_556  A
C807        C808   1.416   1_565  A
C807        O812   1.375       .  S
C808        C809   1.403       .  A
C809        H813   1.083       .  S
C809        C810   1.396   1_554  A
C810        O814   1.373       .  S
O812        H816   0.970       .  S
O814        H815   0.981       .  S
C817        C818   1.399       .  A
C817        C822   1.404       .  A
C818        H823   1.084       .  S
C818        C819   1.397       .  A
C819        C820   1.414       .  A
C819        O824   1.372       .  S
C820        C821   1.410       .  A
C821        H825   1.083       .  S
C821        C822   1.405       .  A
C822        O826   1.371       .  S
O824        H828   0.994       .  S
O826        H827   0.992       .  S
C829        C830   1.414       .  A
C829        C834   1.412       .  A
C830        H835   1.083       .  S
C830        C831   1.424       .  A
C831        C832   1.417       .  A
C831        O836   1.370       .  S
C832        C833   1.411       .  A
C833        H837   1.083       .  S
C833        C834   1.403       .  A
C834        O838   1.373       .  S
O836        H840   0.999       .  S
O838        H839   0.994       .  S
C841        C842   1.419       .  A
C841        C846   1.396       .  A
C842        H847   1.084       .  S
C842        C843   1.406       .  A
C843        C844   1.401       .  A
C843        O848   1.371       .  S
C844        C845   1.422       .  A
C845        H849   1.083       .  S
C845        C846   1.398       .  A
C846        O850   1.371       .  S
O848        H852   0.990       .  S
O850        H851   0.994       .  S
C853        C854   1.406       .  A
C853        C858   1.407       .  A
C854        H859   1.083       .  S
C854        C855   1.410       .  A
C855        C856   1.412       .  A
C855        O860   1.371       .  S
C856        C857   1.403       .  A
C857        H861   1.084       .  S
C857        C858   1.391       .  A
C858        O862   1.373       .  S
O860        H864   0.992       .  S
O862        H863   0.992       .  S
C865        C866   1.402       .  A
C865        C870   1.410       .  A
C866        H871   1.084       .  S
C866        C867   1.396       .  A
C867        C868   1.405       .  A
C867        O872   1.372       .  S
C868        C869   1.402       .  A
C869        H873   1.084       .  S
C869        C870   1.401       .  A
C870        O874   1.372       .  S
O872        H876   0.994       .  S
O874        H875   0.994       .  S
C877        C878   1.399   1_455  A
C877        C882   1.418       .  A
C878        H883   1.084       .  S
C878        C879   1.397       .  A
C879        C880   1.418   1_655  A
C879        O884   1.373       .  S
C880        C881   1.399       .  A
C881        H885   1.084       .  S
C881        C882   1.395       .  A
C882        O886   1.373       .  S
O884        H888   0.988       .  S
O886        H887   0.982       .  S
C889        C890   1.401       .  A
C889        C894   1.404       .  A
C890        H895   1.084       .  S
C890        C891   1.397       .  A
C891        C892   1.406       .  A
C891        O896   1.371       .  S
C892        C893   1.405       .  A
C893        H897   1.084       .  S
C893        C894   1.399       .  A
C894        O898   1.372       .  S
O896        H900   0.998       .  S
O898        H899   0.986       .  S
C901        C902   1.396       .  A
C901        C906   1.428       .  A
C902        H907   1.083       .  S
C902        C903   1.411       .  A
C903        C904   1.427       .  A
C903        O908   1.373       .  S
C904        C905   1.399       .  A
C905        H909   1.083       .  S
C905        C906   1.413       .  A
C906        O910   1.372       .  S
O908        H912   0.986       .  S
O910        H911   0.992       .  S
C913        C914   1.409       .  A
C913        C918   1.414       .  A
C914        H919   1.083       .  S
C914        C915   1.413       .  A
C915        C916   1.411       .  A
C915        O920   1.372       .  S
C916        C917   1.400       .  A
C917        H921   1.084       .  S
C917        C918   1.396       .  A
C918        O922   1.372       .  S
O920        H924   0.990       .  S
O922        H923   0.995       .  S
C925        C926   1.407       .  A
C925        C930   1.409       .  A
C926        H931   1.084       .  S
C926        C927   1.403       .  A
C927        C928   1.405       .  A
C927        O932   1.372       .  S
C928        C929   1.403       .  A
C929        H933   1.084       .  S
C929        C930   1.401       .  A
C930        O934   1.372       .  S
O932        H936   0.992       .  S
O934        H935   0.990       .  S
C937        C938   1.409       .  A
C937        C942   1.406   1_455  A
C938        H943   1.084       .  S
C938        C939   1.396       .  A
C939        C940   1.406       .  A
C939        O944   1.371       .  S
C940        C941   1.410   1_455  A
C941        H945   1.083       .  S
C941        C942   1.398       .  A
C942        O946   1.373       .  S
O944        H948   0.993       .  S
O946        H947   0.991       .  S
C949        C950   1.395       .  A
C949        C954   1.432       .  A
C950        H955   1.083       .  S
C950        C951   1.410       .  A
C951        C952   1.429       .  A
C951        O956   1.373       .  S
C952        C953   1.394       .  A
C953        H957   1.083       .  S
C953        C954   1.406       .  A
C954        O958   1.372       .  S
O956        H960   0.995       .  S
O958        H959   0.990       .  S
C961        C962   1.405       .  A
C961        C966   1.413       .  A
C962        H967   1.084       .  S
C962        C963   1.396       .  A
C963        C964   1.405       .  A
C963        O968   1.372       .  S
C964        C965   1.406       .  A
C965        H969   1.084       .  S
C965        C966   1.409       .  A
C966        O970   1.371       .  S
O968        H972   0.991       .  S
O970        H971   0.989       .  S
C973        C974   1.407       .  A
C973        C978   1.410       .  A
C974        H979   1.084       .  S
C974        C975   1.394       .  A
C975        C976   1.401       .  A
C975        O980   1.372       .  S
C976        C977   1.401       .  A
C977        H981   1.084       .  S
C977        C978   1.401       .  A
C978        O982   1.371       .  S
O980        H984   0.985       .  S
O982        H983   0.992       .  S
C985        C986   1.410       .  A
C985        C990   1.418       .  A
C986        H991   1.083       .  S
C986        C987   1.403       .  A
C987        C988   1.412       .  A
C987        O992   1.373       .  S
C988        C989   1.412       .  A
C989        H993   1.083       .  S
C989        C990   1.424       .  A
C990        O994   1.370       .  S
O992        H996   0.987       .  S
O994        H995   0.996       .  S
C997        C998   1.405       .  A
C997       C1002   1.416       .  A
C998       H1003   1.083       .  S
C998        C999   1.404       .  A
C999       C1000   1.408       .  A
C999       O1004   1.371       .  S
C1000      C1001   1.396       .  A
C1001      H1005   1.084       .  S
C1001      C1002   1.397       .  A
C1002      O1006   1.374       .  S
O1004      H1008   0.990       .  S
O1006      H1007   0.980       .  S
