geometry optimzed in LAMMPS
_audit_creation_date              2020-11-30 
_audit_creation_method            'lammps2cif' 
_symmetry_space_group_name_H-M    'P1' 
_symmetry_Int_Tables_number       1 
_symmetry_cell_setting            triclinic 
loop_ 
_symmetry_equiv_pos_as_xyz 
  x,y,z 
_cell_length_a                    28.133140443823464 
_cell_length_b                    28.141726912746467 
_cell_length_c                    34.975718536921676 
_cell_angle_alpha                 89.94672706267687 
_cell_angle_beta                  89.96398101858375 
_cell_angle_gamma                 89.86610977714004 
loop_ 
_atom_site_label 
_atom_site_type_symbol 
_atom_site_fract_x 
_atom_site_fract_y 
_atom_site_fract_z 
_atom_site_charge 
O1          O  0.95134217  0.66734226  0.59933067    -0.86850
O2          O  0.96519900  0.76221678  0.59695528    -0.83890
C3          C  0.96238921  0.78021850  0.63027769     0.96610
O4          O  0.99166998  0.76877351  0.65629753    -0.83930
O5          O  0.07641862  0.72191293  0.68918655    -0.86570
C6          C  0.06534372  0.68078867  0.70119026     1.01140
O7          O  0.03602181  0.65813551  0.68178787    -0.79330
O8          O  0.99763455  0.61108952  0.62227110    -0.79520
C9          C  0.95641177  0.62752218  0.61515492     1.01090
O10         O  0.02720701  0.65105125  0.54423375    -0.86850
O11         O  0.04575938  0.74658109  0.54743980    -0.83910
C12         C  0.05496487  0.78813993  0.55850846     0.96630
O13         O  0.04882690  0.79905032  0.59330611    -0.83940
O14         O  0.11924544  0.74480482  0.61886235    -0.86540
C15         C  0.14467391  0.71151520  0.63057509     1.01110
O16         O  0.12650139  0.67191343  0.64074794    -0.79360
O17         O  0.08593047  0.62827153  0.58088448    -0.79510
C18         C  0.06588159  0.62854427  0.54893391     1.01070
Cr19       Cr  0.00006018  0.70619228  0.57482235     1.93740
Cr20       Cr  0.05662148  0.75432761  0.63836791     1.93210
Cr21       Cr  0.05975856  0.64597676  0.63030321     1.39100
O22         O  0.03833155  0.70165228  0.61443577    -1.24600
O23         O  0.17585305  0.44137963  0.89638742    -0.86850
O24         O  0.27091015  0.45441767  0.89613819    -0.83890
C25         C  0.28745225  0.45159484  0.86232138     0.96610
O26         O  0.27508522  0.48102663  0.83663493    -0.83930
O27         O  0.22824269  0.56730529  0.80535756    -0.86570
C28         C  0.18639257  0.55718919  0.79465860     1.01140
O29         O  0.16467483  0.52742543  0.81429766    -0.79330
O30         O  0.11949851  0.48802334  0.87402057    -0.79520
C31         C  0.13591673  0.44672421  0.88078516     1.01090
O32         O  0.16257062  0.51678308  0.95222176    -0.86850
O33         O  0.25869081  0.53441837  0.94653078    -0.83910
C34         C  0.29956649  0.54378673  0.93380323     0.96630
O35         O  0.30868977  0.53756021  0.89869720    -0.83940
O36         O  0.25464730  0.60862172  0.87500888    -0.86540
C37         C  0.22062243  0.63458056  0.86566250     1.01110
O38         O  0.18040204  0.61699708  0.85638990    -0.79360
O39         O  0.13765989  0.57524831  0.91611032    -0.79510
C40         C  0.13880648  0.55474923  0.94785195     1.01070
Cr41       Cr  0.21627337  0.48955349  0.92001690     1.93740
Cr42       Cr  0.26226903  0.54611082  0.85510263     1.93210
Cr43       Cr  0.15430658  0.55015689  0.86621175     1.39100
O44         O  0.21042801  0.52828423  0.88065658    -1.24600
O45         O  0.53360546  0.80061376  0.59889032    -0.86850
O46         O  0.51945019  0.70577233  0.59613517    -0.83890
C47         C  0.52382749  0.68803316  0.62944828     0.96610
O48         O  0.49572244  0.69966355  0.65621899    -0.83930
O49         O  0.41189217  0.74578719  0.69149261    -0.86570
C50         C  0.42236737  0.78740015  0.70266171     1.01140
O51         O  0.45137700  0.80979576  0.68273203    -0.79330
O52         O  0.48779917  0.85683916  0.62247165    -0.79520
C53         C  0.52887174  0.84028551  0.61499166     1.01090
O54         O  0.45609354  0.81762843  0.54529955    -0.86850
O55         O  0.43684960  0.72256639  0.54911502    -0.83910
C56         C  0.42678337  0.68122874  0.56027367     0.96630
O57         O  0.43585323  0.66924887  0.59448434    -0.83940
O58         O  0.36609611  0.72226696  0.62319074    -0.86540
C59         C  0.34124928  0.75628739  0.63441678     1.01110
O60         O  0.35971937  0.79607601  0.64354864    -0.79360
O61         O  0.39813495  0.83918284  0.58303690    -0.79510
C62         C  0.41689310  0.83896794  0.55059456     1.01070
Cr63       Cr  0.48398135  0.76216680  0.57522503     1.93740
Cr64       Cr  0.42991267  0.71349908  0.64020930     1.93210
Cr65       Cr  0.42600853  0.82196579  0.63185225     1.39100
O66         O  0.44695638  0.76636777  0.61568821    -1.24600
O67         O  0.30750525  0.02555277  0.89513736    -0.86850
O68         O  0.21256009  0.01145149  0.89580917    -0.83890
C69         C  0.19569232  0.01408067  0.86211346     0.96610
O70         O  0.20809478  0.98474549  0.83641033    -0.83930
O71         O  0.25595983  0.89929784  0.80483098    -0.86570
C72         C  0.29762118  0.90999620  0.79390826     1.01140
O73         O  0.31918555  0.93987565  0.81348540    -0.79330
O74         O  0.36434086  0.97925131  0.87317564    -0.79520
C75         C  0.34756117  0.02045017  0.87965226     1.01090
O76         O  0.32217182  0.95034229  0.95112151    -0.86850
O77         O  0.22628356  0.93168919  0.94623339    -0.83910
C78         C  0.18534955  0.92186691  0.93391645     0.96630
O79         O  0.17581635  0.92767084  0.89881245    -0.83940
O80         O  0.23043359  0.85717364  0.87445372    -0.86540
C81         C  0.26471068  0.83181611  0.86461451     1.01110
O82         O  0.30470271  0.84992987  0.85539843    -0.79360
O83         O  0.34694097  0.89174301  0.91514602    -0.79510
C84         C  0.34587982  0.91233069  0.94682462     1.01070
Cr85       Cr  0.26786897  0.97696715  0.91926848     1.93740
Cr86       Cr  0.22191637  0.91977808  0.85479308     1.93210
Cr87       Cr  0.33003290  0.91693070  0.86532050     1.39100
O88         O  0.27375584  0.93818529  0.88000388    -1.24600
O89         O  0.67714361  0.52479104  0.59720854    -0.86850
O90         O  0.77225515  0.51162273  0.59808504    -0.83890
C91         C  0.78852967  0.51544739  0.63189645     0.96610
O92         O  0.77608218  0.48682333  0.65806801    -0.83930
O93         O  0.72849952  0.40277757  0.69128509    -0.86570
C94         C  0.68646644  0.41339925  0.70149482     1.01140
O95         O  0.66457463  0.44224487  0.68096573    -0.79330
O96         O  0.62040305  0.47869475  0.61920829    -0.79520
C97         C  0.63674565  0.51981354  0.61202439     1.01090
O98         O  0.66461333  0.44717073  0.54294069    -0.86850
O99         O  0.76033213  0.43005807  0.54947390    -0.83910
C100        C  0.80127548  0.42122166  0.56223541     0.96630
O101        O  0.81019078  0.42756587  0.59739962    -0.83940
O102        O  0.75585972  0.35747520  0.62350420    -0.86540
C103        C  0.72128346  0.33248509  0.63318836     1.01110
O104        O  0.68120429  0.35096435  0.64175197    -0.79360
O105        O  0.64140935  0.38946976  0.58034450    -0.79510
C106        C  0.64426910  0.40746182  0.54774160     1.01070
Cr107      Cr  0.71780021  0.47576929  0.57485959     1.93740
Cr108      Cr  0.76338035  0.42113595  0.64126120     1.93210
Cr109      Cr  0.65551067  0.41721086  0.62956288     1.39100
O110        O  0.71179796  0.43837266  0.61508240    -1.24600
O111        O  0.45005112  0.29923005  0.89549397    -0.86850
O112        O  0.46271650  0.20419721  0.89491171    -0.83890
C113        C  0.45924341  0.18805343  0.86105642     0.96610
O114        O  0.48821591  0.20053294  0.83511881    -0.83930
O115        O  0.57311346  0.24807218  0.80286857    -0.86570
C116        C  0.56285143  0.29023447  0.79272594     1.01140
O117        O  0.53401387  0.31222968  0.81316556    -0.79330
O118        O  0.49688778  0.35602871  0.87467080    -0.79520
C119        C  0.45548870  0.33960924  0.88076581     1.01090
O120        O  0.52664314  0.31137418  0.95086315    -0.86850
O121        O  0.54353906  0.21560054  0.94431304    -0.83910
C122        C  0.55268049  0.17477823  0.93144242     0.96630
O123        O  0.54652675  0.16597701  0.89623759    -0.83940
O124        O  0.61714315  0.21989993  0.87119766    -0.86540
C125        C  0.64277186  0.25415527  0.86196141     1.01110
O126        O  0.62476712  0.29437472  0.85309942    -0.79360
O127        O  0.58563063  0.33378453  0.91446056    -0.79510
C128        C  0.56689707  0.33087514  0.94678870     1.01070
Cr129      Cr  0.49840234  0.25840653  0.91853180     1.93740
Cr130      Cr  0.55379562  0.21289638  0.85258669     1.93210
Cr131      Cr  0.55842947  0.32055366  0.86482954     1.39100
O132        O  0.53650499  0.26437142  0.87876073    -1.24600
O133        O  0.80832745  0.94193653  0.59763218    -0.86850
O134        O  0.71322871  0.95453346  0.59802920    -0.83890
C135        C  0.69708437  0.95125545  0.63191493     0.96610
O136        O  0.70954443  0.98037587  0.65767365    -0.83930
O137        O  0.75728826  0.06500288  0.68951178    -0.86570
C138        C  0.79945070  0.05472449  0.69974785     1.01140
O139        O  0.82184066  0.02627771  0.67918311    -0.79330
O140        O  0.86532123  0.98927010  0.61721364    -0.79520
C141        C  0.84903726  0.94772580  0.61161990     1.01090
O142        O  0.82063351  0.01786744  0.54185024    -0.86850
O143        O  0.72471368  0.03489032  0.54812597    -0.83910
C144        C  0.68383698  0.04413281  0.56092541     0.96630
O145        O  0.67502916  0.03837046  0.59620804    -0.83940
O146        O  0.72906505  0.10900670  0.62087196    -0.86540
C147        C  0.76308685  0.13467223  0.63047622     1.01110
O148        O  0.80327263  0.11669502  0.63939581    -0.79360
O149        O  0.84198529  0.07781917  0.57752699    -0.79510
C150        C  0.83948453  0.05846444  0.54543894     1.01070
Cr151      Cr  0.76750214  0.98998076  0.57424750     1.93740
Cr152      Cr  0.72196212  0.04579004  0.63985524     1.93210
Cr153      Cr  0.82956775  0.05059598  0.62735085     1.39100
O154        O  0.77341452  0.02835103  0.61377091    -1.24600
O155        O  0.03409885  0.16738445  0.89552611    -0.86850
O156        O  0.02118951  0.26246517  0.89597092    -0.83890
C157        C  0.02434836  0.27894783  0.86220157     0.96610
O158        O  0.99533562  0.26643845  0.83636027    -0.83930
O159        O  0.91090816  0.21829299  0.80425210    -0.86570
C160        C  0.92103119  0.17609092  0.79404857     1.01140
O161        O  0.94935777  0.15354069  0.81463359    -0.79330
O162        O  0.98665181  0.11020359  0.87655010    -0.79520
C163        C  0.02824999  0.12669456  0.88153636     1.01090
O164        O  0.95859886  0.15430388  0.95170179    -0.86850
O165        O  0.94112561  0.25020836  0.94585151    -0.83910
C166        C  0.93147790  0.29102978  0.93312034     0.96630
O167        O  0.93701054  0.30006434  0.89785059    -0.83940
O168        O  0.86640130  0.24629930  0.87262643    -0.86540
C169        C  0.84092894  0.21209379  0.86308855     1.01110
O170        O  0.85903747  0.17189621  0.85447857    -0.79360
O171        O  0.89807048  0.13354899  0.91643640    -0.79510
C172        C  0.91776761  0.13585483  0.94840595     1.01070
Cr173      Cr  0.98606111  0.20779993  0.91942547     1.93740
Cr174      Cr  0.92984832  0.25352476  0.85399351     1.93210
Cr175      Cr  0.92519640  0.14583977  0.86651264     1.39100
O176        O  0.94741751  0.20202902  0.88001444    -1.24600
O177        O  0.86462835  0.47895987  0.12048212    -0.86850
O178        O  0.81873425  0.44061039  0.18032842    -0.83890
C179        C  0.79641056  0.41150784  0.20018145     0.96610
O180        O  0.75481406  0.40100649  0.18905652    -0.83930
O181        O  0.70851200  0.48616612  0.15586385    -0.86570
C182        C  0.69647423  0.51492132  0.12962690     1.01140
O183        O  0.71328853  0.51103490  0.09597445    -0.79330
O184        O  0.80816752  0.52519594  0.09760674    -0.79520
C185        C  0.84803401  0.52015929  0.11342934     1.01090
O186        O  0.84740394  0.39054945  0.07932299    -0.86850
O187        O  0.80408465  0.34996397  0.13943907    -0.83910
C188        C  0.76404804  0.33195902  0.13014990     0.96630
O189        O  0.73001812  0.35751217  0.12004010    -0.83940
O190        O  0.67666329  0.42813849  0.09369348    -0.86540
C191        C  0.68802397  0.41852105  0.05949921     1.01110
O192        O  0.72890296  0.42924072  0.04754482    -0.79360
O193        O  0.82408709  0.44930528  0.04291875    -0.79510
C194        C  0.84708483  0.41095845  0.04750930     1.01070
Cr195      Cr  0.83007879  0.41672082  0.12886494     1.93740
Cr196      Cr  0.72178337  0.42071570  0.13854940     1.93210
Cr197      Cr  0.76912620  0.47607315  0.07377656     1.39100
O198        O  0.77422549  0.43818465  0.11364097    -1.24600
O199        O  0.98788359  0.35659638  0.37356355    -0.86850
O200        O  0.94826615  0.31193974  0.31359917    -0.83890
C201        C  0.91885282  0.28982892  0.29392654     0.96610
O202        O  0.90856185  0.24810038  0.30488532    -0.83930
O203        O  0.99442262  0.20143271  0.33629377    -0.86570
C204        C  0.02356296  0.18873094  0.36202284     1.01140
O205        O  0.02037963  0.20491688  0.39594028    -0.79330
O206        O  0.03435126  0.29983384  0.39575091    -0.79520
C207        C  0.02913591  0.34000314  0.38047708     1.01090
O208        O  0.90015867  0.33871109  0.41556183    -0.86850
O209        O  0.85849457  0.29629153  0.35564492    -0.83910
C210        C  0.84086605  0.25612475  0.36511293     0.96630
O211        O  0.86683485  0.22213923  0.37450213    -0.83940
O212        O  0.93780315  0.16820905  0.39888852    -0.86540
C213        C  0.92819301  0.17900017  0.43317869     1.01110
O214        O  0.93911210  0.21956350  0.44553886    -0.79360
O215        O  0.95919034  0.31450632  0.45126711    -0.79510
C216        C  0.92090952  0.33779076  0.44719542     1.01070
Cr217      Cr  0.92545248  0.32224240  0.36555430     1.93740
Cr218      Cr  0.92940673  0.21423312  0.35473234     1.93210
Cr219      Cr  0.98563943  0.26024505  0.41939581     1.39100
O220        O  0.94729926  0.26618871  0.37992995    -1.24600
O221        O  0.61847167  0.98818214  0.11838063    -0.86850
O222        O  0.66277314  0.02626063  0.17896532    -0.83890
C223        C  0.68461207  0.05526435  0.19918392     0.96610
O224        O  0.72697249  0.06466283  0.18923737    -0.83930
O225        O  0.77355399  0.97926509  0.15625843    -0.86570
C226        C  0.78636867  0.95086179  0.13003608     1.01140
O227        O  0.77040155  0.95516809  0.09617207    -0.79330
O228        O  0.67541792  0.94148922  0.09690949    -0.79520
C229        C  0.63514630  0.94683589  0.11202549     1.01090
O230        O  0.63760000  0.07657084  0.07747824    -0.86850
O231        O  0.67938352  0.11667330  0.13836759    -0.83910
C232        C  0.71992403  0.13438346  0.13016075     0.96630
O233        O  0.75422415  0.10863792  0.12100052    -0.83940
O234        O  0.80720213  0.03777482  0.09475898    -0.86540
C235        C  0.79655172  0.04787909  0.06048589     1.01110
O236        O  0.75600458  0.03722420  0.04780843    -0.79360
O237        O  0.66072465  0.01715276  0.04182113    -0.79510
C238        C  0.63791505  0.05568653  0.04590659     1.01070
Cr239      Cr  0.65318567  0.05020837  0.12734258     1.93740
Cr240      Cr  0.76120187  0.04505824  0.13911973     1.93530
Cr241      Cr  0.71508915  0.99039591  0.07341898     1.39100
O242        O  0.70928833  0.02828334  0.11320295    -1.24600
O243        O  0.49665933  0.11044241  0.37251236    -0.86850
O244        O  0.53634974  0.15630069  0.31277243    -0.83890
C245        C  0.56529762  0.17947541  0.29332564     0.96610
O246        O  0.57577717  0.22077219  0.30515628    -0.83930
O247        O  0.49029859  0.26711541  0.33744837    -0.86570
C248        C  0.46108133  0.27906055  0.36336609     1.01140
O249        O  0.46411280  0.26177373  0.39693567    -0.79330
O250        O  0.45002405  0.16680717  0.39498901    -0.79520
C251        C  0.45533878  0.12684114  0.37944097     1.01090
O252        O  0.58440356  0.12771348  0.41457706    -0.86850
O253        O  0.62580226  0.17105179  0.35494261    -0.83910
C254        C  0.64371186  0.21099119  0.36449077     0.96630
O255        O  0.61820822  0.24496174  0.37474900    -0.83940
O256        O  0.54721535  0.29831972  0.40044771    -0.86540
C257        C  0.55595806  0.28673855  0.43474186     1.01110
O258        O  0.54499219  0.24578496  0.44630390    -0.79360
O259        O  0.52508120  0.15071516  0.45048045    -0.79510
C260        C  0.56361033  0.12789204  0.44622570     1.01070
Cr261      Cr  0.55901638  0.14507143  0.36475206     1.93740
Cr262      Cr  0.55534913  0.25347863  0.35552941     1.93210
Cr263      Cr  0.49870782  0.20576700  0.41938572     1.39100
O264        O  0.53725190  0.20087207  0.37989487    -1.24600
O265        O  0.48763182  0.61123963  0.11919697    -0.86850
O266        O  0.44948251  0.65597205  0.17966857    -0.83890
C267        C  0.42001161  0.67757988  0.19973460     0.96610
O268        O  0.40932590  0.71942913  0.18921965    -0.83930
O269        O  0.49450139  0.76671658  0.15683112    -0.86570
C270        C  0.52340669  0.77917206  0.13082078     1.01140
O271        O  0.52001060  0.76279162  0.09702348    -0.79330
O272        O  0.53362396  0.66779676  0.09664099    -0.79520
C273        C  0.52871084  0.62770647  0.11204495     1.01090
O274        O  0.39947524  0.62958936  0.07848306    -0.86850
O275        O  0.35892115  0.67162438  0.13888558    -0.83910
C276        C  0.34070581  0.71177732  0.13008462     0.96630
O277        O  0.36597936  0.74613703  0.12047540    -0.83940
O278        O  0.43637129  0.80040916  0.09556853    -0.86540
C279        C  0.43013454  0.79151480  0.06042656     1.01110
O280        O  0.43921142  0.75060837  0.04761461    -0.79360
O281        O  0.45726939  0.65443087  0.04174747    -0.79510
C282        C  0.41949002  0.63064720  0.04654889     1.01070
Cr283      Cr  0.42560768  0.64589659  0.12804113     1.93740
Cr284      Cr  0.42906436  0.75381887  0.13927678     1.93210
Cr285      Cr  0.48474420  0.70816046  0.07359979     1.39100
O286        O  0.44673774  0.70214207  0.11340039    -1.24600
O287        O  0.36553268  0.48874338  0.37329833    -0.86850
O288        O  0.32008858  0.52499378  0.31196549    -0.83890
C289        C  0.29771240  0.55370714  0.29162391     0.96610
O290        O  0.25582153  0.56425880  0.30230729    -0.83930
O291        O  0.20879102  0.48074275  0.33661373    -0.86570
C292        C  0.19686778  0.45229098  0.36303768     1.01140
O293        O  0.21390052  0.45626752  0.39657375    -0.79330
O294        O  0.30889541  0.44270662  0.39549081    -0.79520
C295        C  0.34907791  0.44760528  0.38028086     1.01090
O296        O  0.34521858  0.57825051  0.41224401    -0.86850
O297        O  0.30443168  0.61636562  0.35085186    -0.83910
C298        C  0.26443237  0.63497865  0.35941123     0.96630
O299        O  0.23013006  0.61030566  0.37019033    -0.83940
O300        O  0.17638248  0.54042936  0.39780305    -0.86540
C301        C  0.18632557  0.54671986  0.43282445     1.01110
O302        O  0.22766572  0.53787826  0.44472781    -0.79360
O303        O  0.32327469  0.52014591  0.44968723    -0.79510
C304        C  0.34309700  0.56010179  0.44485558     1.01070
Cr305      Cr  0.33027063  0.55026045  0.36316918     1.93740
Cr306      Cr  0.22205278  0.54646259  0.35299425     1.93210
Cr307      Cr  0.26915469  0.49187259  0.41868343     1.39100
O308        O  0.27424217  0.52924488  0.37839973    -1.24600
O309        O  0.99590563  0.85512087  0.12145231    -0.86850
O310        O  0.03475043  0.80941542  0.18119328    -0.83890
C311        C  0.06459963  0.78771824  0.20083045     0.96610
O312        O  0.07501074  0.74597532  0.19003368    -0.83930
O313        O  0.98900497  0.69978291  0.15773586    -0.86570
C314        C  0.95992382  0.68783281  0.13171575     1.01140
O315        O  0.96350971  0.70438813  0.09793285    -0.79330
O316        O  0.95039539  0.79941530  0.09702626    -0.79520
C317        C  0.95499174  0.83897513  0.11330549     1.01090
O318        O  0.08394991  0.83802789  0.08003311    -0.86850
O319        O  0.12495973  0.79438664  0.13952797    -0.83910
C320        C  0.14296196  0.75423501  0.13037421     0.96630
O321        O  0.11745140  0.71999212  0.12094477    -0.83940
O322        O  0.04673716  0.66597560  0.09637104    -0.86540
C323        C  0.05350631  0.67502748  0.06132355     1.01110
O324        O  0.04481651  0.71605812  0.04859503    -0.79360
O325        O  0.02749450  0.81211195  0.04254647    -0.79510
C326        C  0.06489745  0.83630971  0.04775683     1.01070
Cr327      Cr  0.05813923  0.82046399  0.12950319     1.93740
Cr328      Cr  0.05450041  0.71237521  0.14004334     1.93210
Cr329      Cr  0.99932620  0.75872135  0.07441721     1.39100
O330        O  0.03701562  0.76440962  0.11441141    -1.24600
O331        O  0.11904095  0.97893207  0.36965319    -0.86850
O332        O  0.16704822  0.94138361  0.31026723    -0.83890
C333        C  0.18901678  0.91140833  0.29095310     0.96610
O334        O  0.23029333  0.90020645  0.30267974    -0.83930
O335        O  0.27651089  0.98496676  0.33602372    -0.86570
C336        C  0.28772297  0.01410069  0.36214827     1.01140
O337        O  0.26979789  0.01094042  0.39552910    -0.79330
O338        O  0.17486500  0.02479121  0.39337578    -0.79520
C339        C  0.13523505  0.02000358  0.37727643     1.01090
O340        O  0.13640811  0.89019971  0.41025142    -0.86850
O341        O  0.18055040  0.85011093  0.35086309    -0.83910
C342        C  0.22004887  0.83185042  0.36142888     0.96630
O343        O  0.25331187  0.85726797  0.37293935    -0.83940
O344        O  0.30718135  0.92737711  0.39899126    -0.86540
C345        C  0.29592065  0.92065693  0.43369831     1.01110
O346        O  0.25417731  0.92969059  0.44452088    -0.79360
O347        O  0.15870177  0.94801112  0.44779859    -0.79510
C348        C  0.13669125  0.90926274  0.44253312     1.01070
Cr349      Cr  0.15427163  0.91692173  0.36132819     1.93740
Cr350      Cr  0.26257392  0.91990359  0.35366766     1.93210
Cr351      Cr  0.21383205  0.97576396  0.41748490     1.39100
O352        O  0.20970130  0.93800406  0.37759813    -1.24600
C353        C  0.08230667  0.86294201  0.23672235    -0.14850
C354        C  0.09595226  0.81627914  0.22708778     0.07300
C355        C  0.14279184  0.80211691  0.23631697    -0.14850
C356        C  0.17453052  0.83363772  0.25487172    -0.14850
C357        C  0.16052187  0.88041276  0.26434589     0.07300
C358        C  0.11382008  0.89424647  0.25480700    -0.14850
H359        H  0.04710088  0.87581677  0.22955711     0.11290
H360        H  0.15527511  0.76703704  0.22844419     0.11290
H361        H  0.20960725  0.82099942  0.26262764     0.11290
H362        H  0.10101680  0.92941072  0.26214112     0.11290
C363        C  0.29046288  0.71850785  0.36169667    -0.14850
C364        C  0.25490937  0.68537021  0.35519798     0.07300
C365        C  0.20786405  0.70040025  0.34795846    -0.14850
C366        C  0.19595135  0.74826578  0.34927836    -0.14850
C367        C  0.23099882  0.78135264  0.35803633     0.07300
C368        C  0.27857289  0.76623514  0.36328071    -0.14850
H369        H  0.32673159  0.70743951  0.36723959     0.11290
H370        H  0.17997839  0.67489634  0.34220587     0.11290
H371        H  0.15950083  0.75917833  0.34441039     0.11290
H372        H  0.30681341  0.79123600  0.36928359     0.11290
C373        C  0.25698640  0.68507859  0.13249308    -0.14850
C374        C  0.29008622  0.72164677  0.13301774     0.07300
C375        C  0.27475915  0.76943973  0.13516111    -0.14850
C376        C  0.22674969  0.78060987  0.13514157    -0.14850
C377        C  0.19363707  0.74413038  0.13277731     0.07300
C378        C  0.20899538  0.69624338  0.13224338    -0.14850
H379        H  0.26811912  0.64823136  0.13119279     0.11290
H380        H  0.29996832  0.79844471  0.13636917     0.11290
H381        H  0.21565207  0.81748325  0.13605960     0.11290
H382        H  0.18388158  0.66714990  0.13118753     0.11290
C383        C  0.40342268  0.60225095  0.23602954    -0.14850
C384        C  0.38933007  0.64882843  0.22639804     0.07300
C385        C  0.34254978  0.66270990  0.23600347    -0.14850
C386        C  0.31128331  0.63102890  0.25490469    -0.14850
C387        C  0.32575417  0.58440944  0.26448804     0.07300
C388        C  0.37239618  0.57081242  0.25461683    -0.14850
H389        H  0.43860447  0.58959281  0.22853483     0.11290
H390        H  0.32972457  0.69768288  0.22813215     0.11290
H391        H  0.27622225  0.64347771  0.26292478     0.11290
H392        H  0.38548298  0.53577296  0.26205441     0.11290
C393        C  0.41356153  0.05605003  0.35033858    -0.14850
C394        C  0.41174492  0.09959324  0.36996470     0.07300
C395        C  0.36704345  0.11769931  0.38098732    -0.14850
C396        C  0.32569521  0.09157936  0.37500753    -0.14850
C397        C  0.32773583  0.04711265  0.35721043     0.07300
C398        C  0.37176495  0.03009817  0.34384463    -0.14850
H399        H  0.44729435  0.04139531  0.34112486     0.11290
H400        H  0.36402535  0.15138145  0.39574322     0.11290
H401        H  0.29230484  0.10498456  0.38614007     0.11290
H402        H  0.37431683  0.99519687  0.33096042     0.11290
C403        C  0.38369905  0.31767719  0.37583977    -0.14850
C404        C  0.42823964  0.31926656  0.35805866     0.07300
C405        C  0.44559332  0.36313391  0.34480296    -0.14850
C406        C  0.41989978  0.40519040  0.35139974    -0.14850
C407        C  0.37631692  0.40380051  0.37106250     0.07300
C408        C  0.35787652  0.35928652  0.38197238    -0.14850
H409        H  0.37005424  0.28441780  0.38692695     0.11290
H410        H  0.48056828  0.36533592  0.33196470     0.11290
H411        H  0.43476033  0.43877548  0.34220635     0.11290
H412        H  0.32412579  0.35659707  0.39670660     0.11290
C413        C  0.82498303  0.87377431  0.11659729    -0.14850
C414        C  0.82621136  0.91759157  0.13547641     0.07300
C415        C  0.86977193  0.93422720  0.14986402    -0.14850
C416        C  0.91193416  0.90865889  0.14331046    -0.14850
C417        C  0.91096784  0.86590990  0.12253715     0.07300
C418        C  0.86669104  0.84807410  0.11047424    -0.14850
H419        H  0.79199034  0.86071786  0.10461148     0.11290
H420        H  0.87174146  0.96867282  0.16355634     0.11290
H421        H  0.94531386  0.92303585  0.15339751     0.11290
H422        H  0.86430621  0.81496662  0.09484795     0.11290
C423        C  0.62684060  0.85844438  0.11222226    -0.14850
C424        C  0.60802132  0.90328561  0.12195928     0.07300
C425        C  0.56413361  0.90525915  0.14115785    -0.14850
C426        C  0.53852216  0.86341439  0.14839017    -0.14850
C427        C  0.55626965  0.81914779  0.13627336     0.07300
C428        C  0.60110467  0.81702404  0.11899624    -0.14850
H429        H  0.66081843  0.85530978  0.09787193     0.11290
H430        H  0.54894343  0.93911454  0.14943628     0.11290
H431        H  0.50327913  0.86602234  0.16071303     0.11290
H432        H  0.61499559  0.78345185  0.10866387     0.11290
C433        C  0.60663901  0.07911552  0.22887593    -0.14850
C434        C  0.65601166  0.08689887  0.22537237     0.07300
C435        C  0.67448384  0.12890558  0.24153487    -0.14850
C436        C  0.64456827  0.16128142  0.26120015    -0.14850
C437        C  0.59528290  0.15275759  0.26496374     0.07300
C438        C  0.57703050  0.11125165  0.24823430    -0.14850
H439        H  0.59042532  0.04801875  0.21621935     0.11290
H440        H  0.71193914  0.13696365  0.23870790     0.11290
H441        H  0.66032130  0.19207927  0.27467227     0.11290
H442        H  0.53963005  0.10284122  0.25107137     0.11290
C443        C  0.03872948  0.10499587  0.34263630    -0.14850
C444        C  0.05633960  0.14868486  0.35598204     0.07300
C445        C  0.10114485  0.15005375  0.37324767    -0.14850
C446        C  0.12698302  0.10834916  0.37886162    -0.14850
C447        C  0.10827069  0.06395517  0.36797077     0.07300
C448        C  0.06443630  0.06282650  0.34872793    -0.14850
H449        H  0.00353581  0.10298407  0.33020595     0.11290
H450        H  0.11497192  0.18317115  0.38440101     0.11290
H451        H  0.16093026  0.11085952  0.39328428     0.11290
H452        H  0.04932010  0.02934644  0.33962361     0.11290
C453        C  0.11723760  0.34954628  0.38339209    -0.14850
C454        C  0.07282967  0.36715667  0.37120447     0.07300
C455        C  0.07145411  0.40985642  0.35033760    -0.14850
C456        C  0.11339852  0.43553611  0.34369145    -0.14850
C457        C  0.15708860  0.41907227  0.35814295     0.07300
C458        C  0.15870392  0.37537120  0.37721429    -0.14850
H459        H  0.11990814  0.31651793  0.39916129     0.11290
H460        H  0.03794718  0.42403766  0.34017680     0.11290
H461        H  0.11116546  0.46989060  0.32981056     0.11290
H462        H  0.19181178  0.36245117  0.38921799     0.11290
C463        C  0.77560685  0.19737501  0.36601694    -0.14850
C464        C  0.79023333  0.24535296  0.36303797     0.07300
C465        C  0.75651751  0.28101170  0.35788053    -0.14850
C466        C  0.70870074  0.26904850  0.35727307    -0.14850
C467        C  0.69418851  0.22129392  0.36161995     0.07300
C468        C  0.72787170  0.18543110  0.36512389    -0.14850
H469        H  0.80107365  0.16874729  0.36937241     0.11290
H470        H  0.76696989  0.31786961  0.35501029     0.11290
H471        H  0.68291763  0.29739254  0.35384580     0.11290
H472        H  0.71732225  0.14863947  0.36835696     0.11290
C473        C  0.94322510  0.60430254  0.15099208    -0.14850
C474        C  0.92653128  0.64820090  0.13711820     0.07300
C475        C  0.88258451  0.64995835  0.11839763    -0.14850
C476        C  0.85690342  0.60847678  0.11181836    -0.14850
C477        C  0.87486138  0.56390602  0.12326941     0.07300
C478        C  0.91766923  0.56237715  0.14397952    -0.14850
H479        H  0.97774919  0.60190974  0.16455586     0.11290
H480        H  0.86945887  0.68321080  0.10679175     0.11290
H481        H  0.82374936  0.61128524  0.09626008     0.11290
H482        H  0.93212482  0.52875110  0.15362839     0.11290
C483        C  0.61285529  0.53167929  0.14868221    -0.14850
C484        C  0.65668382  0.54826742  0.13474978     0.07300
C485        C  0.65843174  0.59226618  0.11611053    -0.14850
C486        C  0.61695620  0.61824204  0.10978603    -0.14850
C487        C  0.57244915  0.60047925  0.12139374     0.07300
C488        C  0.57094112  0.55751062  0.14190437    -0.14850
H489        H  0.61052094  0.49711406  0.16219501     0.11290
H490        H  0.69167013  0.60528592  0.10449282     0.11290
H491        H  0.61970504  0.65150430  0.09436156     0.11290
H492        H  0.53734560  0.54320799  0.15164832     0.11290
C493        C  0.78991003  0.24768693  0.13463625    -0.14850
C494        C  0.75368066  0.28131803  0.13301350     0.07300
C495        C  0.70565580  0.26651137  0.13317568    -0.14850
C496        C  0.69406044  0.21863583  0.13329634    -0.14850
C497        C  0.73031603  0.18499494  0.13306166     0.07300
C498        C  0.77831028  0.19978065  0.13455418    -0.14850
H499        H  0.82689701  0.25831069  0.13493901     0.11290
H500        H  0.67675791  0.29201435  0.13270409     0.11290
H501        H  0.65707785  0.20803152  0.13253212     0.11290
H502        H  0.80716717  0.17423474  0.13515079     0.11290
C503        C  0.87045304  0.39543338  0.23807420    -0.14850
C504        C  0.82430316  0.38113978  0.22764699     0.07300
C505        C  0.81043457  0.33439524  0.23717405    -0.14850
C506        C  0.84182924  0.30328051  0.25666961    -0.14850
C507        C  0.88813691  0.31788206  0.26680326     0.07300
C508        C  0.90163297  0.36453952  0.25711357    -0.14850
H509        H  0.88307140  0.43061747  0.23072010     0.11290
H510        H  0.77578563  0.32145772  0.22871424     0.11290
H511        H  0.82948205  0.26819134  0.26454041     0.11290
H512        H  0.93642836  0.37773094  0.26495383     0.11290
C513        C  0.90937471  0.35450251  0.02594121    -0.14850
C514        C  0.87399305  0.38774514  0.01614345     0.07300
C515        C  0.86155051  0.39307376  0.97742468    -0.14850
C516        C  0.88206670  0.36332782  0.94951893    -0.14850
C517        C  0.91486220  0.32783195  0.96020048     0.07300
C518        C  0.92924504  0.32483281  0.99845023    -0.14850
H519        H  0.92033766  0.34988569  0.05537847     0.11290
H520        H  0.83424668  0.41821417  0.96908234     0.11290
H521        H  0.87040805  0.36625018  0.92012946     0.11290
H522        H  0.95497361  0.29835332  0.00740934     0.11290
C523        C  0.90974840  0.09302913  0.01224124    -0.14850
C524        C  0.88987723  0.11776445  0.98115125     0.07300
C525        C  0.84022273  0.12219045  0.97875056    -0.14850
C526        C  0.81081270  0.10013512  0.00509045    -0.14850
C527        C  0.82997393  0.07319212  0.03502695     0.07300
C528        C  0.87978187  0.07086502  0.03924607    -0.14850
H529        H  0.94793305  0.08916729  0.01470140     0.11290
H530        H  0.82382488  0.14187028  0.95558671     0.11290
H531        H  0.77268471  0.10372081  0.00162495     0.11290
H532        H  0.89534825  0.05061779  0.06241556     0.11290
C533        C  0.87404719  0.07097693  0.73705151    -0.14850
C534        C  0.82749049  0.08489073  0.72719148     0.07300
C535        C  0.81306454  0.13132613  0.73727850    -0.14850
C536        C  0.84422561  0.16247047  0.75677980    -0.14850
C537        C  0.89085168  0.14822101  0.76651195     0.07300
C538        C  0.90495998  0.10187563  0.75626959    -0.14850
H539        H  0.88711364  0.03607668  0.72921754     0.11290
H540        H  0.77809977  0.14402995  0.72926311     0.11290
H541        H  0.83138106  0.19725946  0.76510427     0.11290
H542        H  0.94002158  0.08895281  0.76382546     0.11290
C543        C  0.85534525  0.13613588  0.51601146    -0.14850
C544        C  0.85800960  0.08643404  0.51290389     0.07300
C545        C  0.88122070  0.06639855  0.48114423    -0.14850
C546        C  0.90358794  0.09614430  0.45410396    -0.14850
C547        C  0.90297235  0.14589073  0.45894058     0.07300
C548        C  0.87758975  0.16530921  0.48963343    -0.14850
H549        H  0.83680798  0.15273505  0.53967494     0.11290
H550        H  0.88366391  0.02817801  0.47810577     0.11290
H551        H  0.92255616  0.08039790  0.43033263     0.11290
H552        H  0.87527040  0.20344087  0.49361660     0.11290
C553        C  0.61109918  0.09313063  0.54445343    -0.14850
C554        C  0.64679293  0.06048833  0.53386184     0.07300
C555        C  0.64984758  0.04606588  0.49562625    -0.14850
C556        C  0.62009841  0.06574542  0.46807591    -0.14850
C557        C  0.58668225  0.10101543  0.47775286     0.07300
C558        C  0.58126168  0.11347799  0.51646781    -0.14850
H559        H  0.60811438  0.10484101  0.57382070     0.11290
H560        H  0.67646793  0.02046677  0.48670860     0.11290
H561        H  0.62482964  0.05475640  0.43866097     0.11290
H562        H  0.55601274  0.14070661  0.52474031     0.11290
C563        C  0.57547506  0.37066620  0.01187627    -0.14850
C564        C  0.59525976  0.34972588  0.97901321     0.07300
C565        C  0.64494568  0.34916677  0.97478216    -0.14850
C566        C  0.67418511  0.37102311  0.00128185    -0.14850
C567        C  0.65493250  0.39397870  0.03325130     0.07300
C568        C  0.60529968  0.39270378  0.03899972    -0.14850
H569        H  0.53730438  0.37144288  0.01585724     0.11290
H570        H  0.66149721  0.33237622  0.95027568     0.11290
H571        H  0.71223463  0.37017521  0.99643438     0.11290
H572        H  0.58963331  0.40976120  0.06371547     0.11290
C573        C  0.57469598  0.11078918  0.02401432    -0.14850
C574        C  0.61091305  0.07840962  0.01436168     0.07300
C575        C  0.62386644  0.07354218  0.97570339    -0.14850
C576        C  0.60303502  0.10305328  0.94774177    -0.14850
C577        C  0.56940764  0.13779996  0.95833829     0.07300
C578        C  0.55450564  0.14020216  0.99648666    -0.14850
H579        H  0.56332012  0.11497542  0.05339715     0.11290
H580        H  0.65180202  0.04904513  0.96748530     0.11290
H581        H  0.61512354  0.10064883  0.91842546     0.11290
H582        H  0.52816489  0.16611632  0.00535526     0.11290
C583        C  0.70909482  0.19636600  0.86036000    -0.14850
C584        C  0.69357513  0.24418541  0.85975367     0.07300
C585        C  0.72668269  0.28076489  0.85781786    -0.14850
C586        C  0.77477653  0.26973610  0.85812932    -0.14850
C587        C  0.79023263  0.22198444  0.86014667     0.07300
C588        C  0.75715439  0.18534748  0.86042356    -0.14850
H589        H  0.68404082  0.16720868  0.86122025     0.11290
H590        H  0.71549918  0.31761578  0.85698171     0.11290
H591        H  0.79994063  0.29879827  0.85721606     0.11290
H592        H  0.76835083  0.14851692  0.86170828     0.11290
C593        C  0.70519070  0.20100307  0.63027944    -0.14850
C594        C  0.75284360  0.18534410  0.63337803     0.07300
C595        C  0.78900951  0.21814284  0.63945877    -0.14850
C596        C  0.77793270  0.26615818  0.64073629    -0.14850
C597        C  0.73056739  0.28180074  0.63608719     0.07300
C598        C  0.69411576  0.24898800  0.63179605    -0.14850
H599        H  0.67625098  0.17619551  0.62621249     0.11290
H600        H  0.82565595  0.20684227  0.64246466     0.11290
H601        H  0.80668353  0.29121604  0.64473258     0.11290
H602        H  0.65758080  0.26044007  0.62826553     0.11290
C603        C  0.57995566  0.36549269  0.75647662    -0.14850
C604        C  0.59361525  0.31874221  0.76598067     0.07300
C605        C  0.64026545  0.30446379  0.75636584    -0.14850
C606        C  0.67188596  0.33596404  0.73768588    -0.14850
C607        C  0.65789622  0.38277726  0.72829550     0.07300
C608        C  0.61132796  0.39674415  0.73805262    -0.14850
H609        H  0.54488341  0.37843562  0.76399223     0.11290
H610        H  0.65275973  0.26934046  0.76414361     0.11290
H611        H  0.70686713  0.32324650  0.72971285     0.11290
H612        H  0.59861605  0.43195487  0.73071771     0.11290
C613        C  0.87344846  0.37157946  0.54560025    -0.14850
C614        C  0.83829711  0.40488456  0.53519656     0.07300
C615        C  0.83567754  0.42003234  0.49711266    -0.14850
C616        C  0.86530361  0.40040922  0.46946950    -0.14850
C617        C  0.89810048  0.36445847  0.47890875     0.07300
C618        C  0.90313695  0.35126467  0.51750903    -0.14850
H619        H  0.87606492  0.35933912  0.57486458     0.11290
H620        H  0.80947020  0.44616348  0.48838467     0.11290
H621        H  0.86092700  0.41198234  0.44015071     0.11290
H622        H  0.92793028  0.32352394  0.52558230     0.11290
C623        C  0.58444705  0.36881785  0.45461638    -0.14850
C624        C  0.57971322  0.31965707  0.46160823     0.07300
C625        C  0.59887408  0.30061621  0.49524668    -0.14850
C626        C  0.62078376  0.32962139  0.52184295    -0.14850
C627        C  0.62414747  0.37895174  0.51606998     0.07300
C628        C  0.60660984  0.39843257  0.48181483    -0.14850
H629        H  0.57035988  0.38431531  0.42864891     0.11290
H630        H  0.59697327  0.26287853  0.50125442     0.11290
H631        H  0.63486232  0.31309611  0.54744174     0.11290
H632        H  0.60890859  0.43629341  0.47658914     0.11290
C633        C  0.06901648  0.05431473  0.85356808    -0.14850
C634        C  0.07149893  0.09902547  0.87135094     0.07300
C635        C  0.11662691  0.11825315  0.87936289    -0.14850
C636        C  0.15792056  0.09223622  0.87236069    -0.14850
C637        C  0.15537490  0.04667599  0.85653939     0.07300
C638        C  0.11073526  0.02838767  0.84609918    -0.14850
H639        H  0.03492321  0.03878009  0.84661862     0.11290
H640        H  0.12015569  0.15285738  0.89256093     0.11290
H641        H  0.19181076  0.10656418  0.88143194     0.11290
H642        H  0.10786080  0.99260480  0.83495957     0.11290
C643        C  0.35560542  0.10890247  0.87935866    -0.14850
C644        C  0.37440227  0.06410108  0.86948483     0.07300
C645        C  0.41819653  0.06220848  0.85014025    -0.14850
C646        C  0.44382337  0.10405959  0.84300815    -0.14850
C647        C  0.42620862  0.14825747  0.85539354     0.07300
C648        C  0.38138552  0.15034280  0.87270777    -0.14850
H649        H  0.32168270  0.11196264  0.89380250     0.11290
H650        H  0.43336427  0.02838797  0.84174442     0.11290
H651        H  0.47903040  0.10147390  0.83061460     0.11290
H652        H  0.36757528  0.18386687  0.88320739     0.11290
C653        C  0.11291085  0.87275308  0.95004377    -0.14850
C654        C  0.14898423  0.90456425  0.96109998     0.07300
C655        C  0.15262052  0.91757020  0.99958915    -0.14850
C656        C  0.12281697  0.89749671  0.02685473    -0.14850
C657        C  0.08884071  0.86310559  0.01663358     0.07300
C658        C  0.08308898  0.85191365  0.97773137    -0.14850
H659        H  0.10944708  0.86219956  0.92043423     0.11290
H660        H  0.17952790  0.94252486  0.00886781     0.11290
H661        H  0.12784089  0.90764836  0.05641993     0.11290
H662        H  0.05735477  0.82550612  0.96899882     0.11290
C663        C  0.35935067  0.89343236  0.01687178    -0.14850
C664        C  0.37290386  0.88950480  0.97829909     0.07300
C665        C  0.40936221  0.85739903  0.96851175    -0.14850
C666        C  0.42902901  0.82719188  0.99573331    -0.14850
C667        C  0.41350225  0.82869710  0.03372017     0.07300
C668        C  0.37978524  0.86326293  0.04454232    -0.14850
H669        H  0.33122110  0.91765337  0.02519164     0.11290
H670        H  0.42120673  0.85392006  0.93918807     0.11290
H671        H  0.45551038  0.80147714  0.98676112     0.11290
H672        H  0.36731905  0.86502538  0.07378658     0.11290
C673        C  0.61723837  0.84838580  0.61345484    -0.14850
C674        C  0.57277702  0.86689459  0.62462858     0.07300
C675        C  0.57149860  0.91006512  0.64480876    -0.14850
C676        C  0.61358652  0.93545687  0.65149597    -0.14850
C677        C  0.65736388  0.91820039  0.63782866     0.07300
C678        C  0.65888497  0.87389913  0.61971094    -0.14850
H679        H  0.61983952  0.81491481  0.59834058     0.11290
H680        H  0.53795138  0.92494230  0.65422630     0.11290
H681        H  0.61142337  0.97026265  0.66458844     0.11290
H682        H  0.69206886  0.86035703  0.60828391     0.11290
C683        C  0.60063855  0.64941052  0.61462887    -0.14850
C684        C  0.55692287  0.64784935  0.63369450     0.07300
C685        C  0.54044067  0.60412906  0.64793812    -0.14850
C686        C  0.56624611  0.56217080  0.64131006    -0.14850
C687        C  0.60912073  0.56351997  0.62067061     0.07300
C688        C  0.62662515  0.60790120  0.60849444    -0.14850
H689        H  0.61356811  0.68255107  0.60278086     0.11290
H690        H  0.50606990  0.60193677  0.66179278     0.11290
H691        H  0.55212698  0.52868685  0.65145751     0.11290
H692        H  0.65978242  0.61052316  0.59290519     0.11290
C693        C  0.31283807  0.83224927  0.75801093    -0.14850
C694        C  0.32642961  0.87911114  0.76736670     0.07300
C695        C  0.37290553  0.89321913  0.75761774    -0.14850
C696        C  0.40456281  0.86212996  0.73927051    -0.14850
C697        C  0.39128299  0.81541920  0.72961088     0.07300
C698        C  0.34472259  0.80093434  0.73922301    -0.14850
H699        H  0.27794628  0.81942086  0.76596945     0.11290
H700        H  0.38536022  0.92846721  0.76488458     0.11290
H701        H  0.43953383  0.87525737  0.73182153     0.11290
H702        H  0.33250585  0.76581876  0.73135994     0.11290
C703        C  0.40388376  0.86177883  0.48072969    -0.14850
C704        C  0.39041618  0.86362900  0.51948452     0.07300
C705        C  0.34776147  0.88699838  0.52910634    -0.14850
C706        C  0.31845680  0.90613742  0.50115709    -0.14850
C707        C  0.33065782  0.90313499  0.46239185     0.07300
C708        C  0.37422771  0.88163094  0.45231918    -0.14850
H709        H  0.43642111  0.84397111  0.47235345     0.11290
H710        H  0.33597015  0.88959773  0.55849287     0.11290
H711        H  0.28552013  0.92278150  0.51013050     0.11290
H712        H  0.38454401  0.87883899  0.42260004     0.11290
C713        C  0.38832018  0.66683996  0.49785253    -0.14850
C714        C  0.40448600  0.64813545  0.53264443     0.07300
C715        C  0.39864404  0.59912770  0.53976129    -0.14850
C716        C  0.37796236  0.56945174  0.51182964    -0.14850
C717        C  0.36319703  0.58862849  0.47660291     0.07300
C718        C  0.36808328  0.63775283  0.47046740    -0.14850
H719        H  0.39126909  0.70441751  0.49150235     0.11290
H720        H  0.41049866  0.58381850  0.56650668     0.11290
H721        H  0.37435672  0.53177623  0.51741853     0.11290
H722        H  0.35616990  0.65417333  0.44413214     0.11290
C723        C  0.06503769  0.40507978  0.85153315    -0.14850
C724        C  0.10890045  0.40314672  0.87074073     0.07300
C725        C  0.12774353  0.35830571  0.88050595    -0.14850
C726        C  0.10204068  0.31686691  0.87380110    -0.14850
C727        C  0.05719072  0.31895169  0.85658095     0.07300
C728        C  0.03944198  0.36320942  0.84438772    -0.14850
H729        H  0.04981896  0.43892685  0.84323417     0.11290
H730        H  0.16170998  0.35518077  0.89484569     0.11290
H731        H  0.11595731  0.28330709  0.88417462     0.11290
H732        H  0.00419911  0.36579696  0.83209449     0.11290
C733        C  0.37187836  0.43667566  0.84475173    -0.14850
C734        C  0.32758947  0.41879533  0.85660438     0.07300
C735        C  0.32556887  0.37379439  0.87356462    -0.14850
C736        C  0.36707916  0.34804933  0.88035728    -0.14850
C737        C  0.41192853  0.36697748  0.87092745     0.07300
C738        C  0.41382848  0.41101832  0.85197924    -0.14850
H739        H  0.37439706  0.47203731  0.83266982     0.11290
H740        H  0.29198460  0.35978029  0.88368979     0.11290
H741        H  0.36397838  0.31393373  0.89447423     0.11290
H742        H  0.44768252  0.42626957  0.84389776     0.11290
C743        C  0.19527791  0.71868642  0.85887121    -0.14850
C744        C  0.23124564  0.68516556  0.86333408     0.07300
C745        C  0.27922736  0.69996797  0.86543396    -0.14850
C746        C  0.29088404  0.74777912  0.86451467    -0.14850
C747        C  0.25471329  0.78128532  0.86182802     0.07300
C748        C  0.20694059  0.76652145  0.85820047    -0.14850
H749        H  0.15839378  0.70806544  0.85665408     0.11290
H750        H  0.30803451  0.67458254  0.86816682     0.11290
H751        H  0.32770613  0.75850487  0.86708957     0.11290
H752        H  0.17831636  0.79210218  0.85533646     0.11290
C753        C  0.12495350  0.57352059  0.01790745    -0.14850
C754        C  0.11169069  0.57758812  0.97928361     0.07300
C755        C  0.07522458  0.60965791  0.96940713    -0.14850
C756        C  0.05523518  0.63965823  0.99659838    -0.14850
C757        C  0.07042271  0.63798113  0.03464983     0.07300
C758        C  0.10419024  0.60348780  0.04554829    -0.14850
H759        H  0.15306249  0.54931522  0.02630757     0.11290
H760        H  0.06356995  0.61323791  0.94004941     0.11290
H761        H  0.02875535  0.66534659  0.98756179     0.11290
H762        H  0.11642931  0.60162859  0.07484150     0.11290
C763        C  0.33430022  0.54690729  0.99874582    -0.14850
C764        C  0.33633543  0.56115557  0.96045901     0.07300
C765        C  0.37094624  0.59448977  0.94920944    -0.14850
C766        C  0.40074988  0.61568749  0.97665344    -0.14850
C767        C  0.39638790  0.60332583  0.01545208     0.07300
C768        C  0.36411776  0.56734725  0.02575884    -0.14850
H769        H  0.30851537  0.52079239  0.00808460     0.11290
H770        H  0.37308091  0.60602409  0.91973315     0.11290
H771        H  0.42514014  0.64337111  0.96791229     0.11290
H772        H  0.36031220  0.55634422  0.05526786     0.11290
C773        C  0.94716106  0.86492877  0.64691005    -0.14850
C774        C  0.92959371  0.82053936  0.63509535     0.07300
C775        C  0.88465584  0.81819249  0.61811362    -0.14850
C776        C  0.85850175  0.85947747  0.61149638    -0.14850
C777        C  0.87697854  0.90442749  0.62107922     0.07300
C778        C  0.92111491  0.90666397  0.63981293    -0.14850
H779        H  0.98246467  0.86768081  0.65903987     0.11290
H780        H  0.87086921  0.78451611  0.60806416     0.11290
H781        H  0.82437115  0.85613405  0.59747181     0.11290
H782        H  0.93604782  0.94060885  0.64795461     0.11290
C783        C  0.87200792  0.53171488  0.65141967    -0.14850
C784        C  0.82824487  0.54862271  0.63743076     0.07300
C785        C  0.82661330  0.59282545  0.61912913    -0.14850
C786        C  0.86813294  0.61867757  0.61314634    -0.14850
C787        C  0.91262185  0.60057868  0.62470582     0.07300
C788        C  0.91399881  0.55741518  0.64494963    -0.14850
H789        H  0.87425736  0.49698725  0.66468589     0.11290
H790        H  0.79345609  0.60610841  0.60747427     0.11290
H791        H  0.86543286  0.65209128  0.59791603     0.11290
H792        H  0.94755127  0.54281501  0.65461889     0.11290
C793        C  0.22839007  0.68697435  0.64169975    -0.14850
C794        C  0.19499280  0.72250642  0.63483349     0.07300
C795        C  0.20965038  0.77046023  0.63210035    -0.14850
C796        C  0.25734920  0.78237314  0.63400581    -0.14850
C797        C  0.29084959  0.74646757  0.63839621     0.07300
C798        C  0.27615819  0.69890903  0.64341114    -0.14850
H799        H  0.21780057  0.65016487  0.64464925     0.11290
H800        H  0.18428806  0.79897699  0.62775255     0.11290
H801        H  0.26808326  0.81904984  0.63033495     0.11290
H802        H  0.30184371  0.67064071  0.64764275     0.11290
C803        C  0.14343200  0.66524685  0.73629175    -0.14850
C804        C  0.09547874  0.65336837  0.72912694     0.07300
C805        C  0.07943270  0.60885857  0.74212921    -0.14850
C806        C  0.10987824  0.57718332  0.76113821    -0.14850
C807        C  0.15786770  0.58851814  0.76821072     0.07300
C808        C  0.17412567  0.63337441  0.75574282    -0.14850
H809        H  0.15765531  0.69852151  0.72580140     0.11290
H810        H  0.04320802  0.59780001  0.73666739     0.11290
H811        H  0.09535764  0.54366307  0.77085144     0.11290
H812        H  0.21034893  0.64413206  0.76149560     0.11290
C813        C  0.08156425  0.61176005  0.47860360    -0.14850
C814        C  0.09012898  0.60238391  0.51753704     0.07300
C815        C  0.12703745  0.57077842  0.52726791    -0.14850
C816        C  0.15666062  0.55170135  0.49940357    -0.14850
C817        C  0.15013788  0.56298345  0.46073874     0.07300
C818        C  0.11133091  0.59195403  0.45029814    -0.14850
H819        H  0.05350961  0.63602783  0.47021455     0.11290
H820        H  0.13440522  0.56206222  0.55683126     0.11290
H821        H  0.18567911  0.52887469  0.50835995     0.11290
H822        H  0.10550294  0.60111583  0.42061548     0.11290
C823        C  0.06594254  0.81325375  0.49125309    -0.14850
C824        C  0.07192601  0.82333826  0.53013082     0.07300
C825        C  0.09592323  0.86526721  0.54066138    -0.14850
C826        C  0.11572358  0.89512787  0.51246523    -0.14850
C827        C  0.11125930  0.88352117  0.47351498     0.07300
C828        C  0.08494440  0.84287900  0.46349705    -0.14850
H829        H  0.04715330  0.78168979  0.48206612     0.11290
H830        H  0.10093564  0.87390656  0.57052230     0.11290
H831        H  0.13580184  0.92609150  0.52110732     0.11290
H832        H  0.08011440  0.83276620  0.43390642     0.11290
loop_ 
_geom_bond_atom_site_label_1 
_geom_bond_atom_site_label_2 
_geom_bond_distance 
_geom_bond_site_symmetry_2 
_ccdc_geom_bond_type 
O1          Cr19   1.953   1_655  S
O1            C9   1.257       .  A
O2          Cr19   2.010   1_655  S
O2            C3   1.274       .  A
C3            O4   1.269       .  A
C3          C774   1.471       .  S
O4          Cr20   1.973   1_655  S
O5          Cr20   2.073       .  S
O5            C6   1.270       .  A
C6            O7   1.246       .  A
C6          C804   1.505       .  S
O7          Cr21   1.950       .  S
O8          Cr21   2.026   1_655  S
O8            C9   1.272       .  A
C9          C787   1.486       .  S
O10         Cr19   2.033       .  S
O10          C18   1.268       .  A
O11         Cr19   1.966       .  S
O11          C12   1.260       .  A
C12          O13   1.267       .  A
C12         C824   1.481       .  S
O13         Cr20   2.028       .  S
O14         Cr20   1.907       .  S
O14          C15   1.247       .  A
C15          O16   1.277       .  A
C15         C794   1.457       .  S
O16         Cr21   2.049       .  S
O17         Cr21   1.943       .  S
O17          C18   1.252       .  A
C18         C814   1.487       .  S
Cr19         O22   1.760       .  S
Cr20         O22   1.780       .  S
Cr21         O22   1.767       .  S
O23         Cr41   1.956       .  S
O23          C31   1.258       .  A
O24         Cr41   2.008       .  S
O24          C25   1.273       .  A
C25          O26   1.270       .  A
C25         C734   1.470       .  S
O26         Cr42   1.975       .  S
O27         Cr42   2.073       .  S
O27          C28   1.269       .  A
C28          O29   1.244       .  A
C28         C807   1.508       .  S
O29         Cr43   1.947       .  S
O30         Cr43   2.024       .  S
O30          C31   1.272       .  A
C31         C724   1.487       .  S
O32         Cr41   2.033       .  S
O32          C40   1.268       .  A
O33         Cr41   1.972       .  S
O33          C34   1.261       .  A
C34          O35   1.266       .  A
C34         C764   1.477       .  S
O35         Cr42   2.022       .  S
O36         Cr42   1.904       .  S
O36          C37   1.246       .  A
C37          O38   1.278       .  A
C37         C744   1.457       .  S
O38         Cr43   2.049       .  S
O39         Cr43   1.940       .  S
O39          C40   1.251       .  A
C40         C754   1.484       .  S
Cr41         O44   1.763       .  S
Cr42         O44   1.783       .  S
Cr43         O44   1.767       .  S
O45         Cr63   1.953       .  S
O45          C53   1.258       .  A
O46         Cr63   2.010       .  S
O46          C47   1.273       .  A
C47          O48   1.268       .  A
C47         C684   1.471       .  S
O48         Cr64   1.972       .  S
O49         Cr64   2.074       .  S
O49          C50   1.270       .  A
C50          O51   1.245       .  A
C50         C697   1.507       .  S
O51         Cr65   1.948       .  S
O52         Cr65   2.025       .  S
O52          C53   1.272       .  A
C53         C674   1.485       .  S
O54         Cr63   2.035       .  S
O54          C62   1.268       .  A
O55         Cr63   1.961       .  S
O55          C56   1.260       .  A
C56          O57   1.269       .  A
C56         C714   1.483       .  S
O57         Cr64   2.034       .  S
O58         Cr64   1.907       .  S
O58          C59   1.248       .  A
C59          O60   1.276       .  A
C59         C797   1.452       .  S
O60         Cr65   2.045       .  S
O61         Cr65   1.940       .  S
O61          C62   1.251       .  A
C62         C704   1.489       .  S
Cr63         O66   1.761       .  S
Cr64         O66   1.783       .  S
Cr65         O66   1.764       .  S
O67         Cr85   1.957   1_545  S
O67          C75   1.258       .  A
O68         Cr85   2.007   1_545  S
O68          C69   1.273       .  A
C69          O70   1.269   1_545  A
C69         C637   1.470       .  S
O70         Cr86   1.975       .  S
O71         Cr86   2.074       .  S
O71          C72   1.269       .  A
C72          O73   1.244       .  A
C72         C694   1.507       .  S
O73         Cr87   1.948       .  S
O74         Cr87   2.023       .  S
O74          C75   1.271   1_565  A
C75         C644   1.486       .  S
O76         Cr85   2.033       .  S
O76          C84   1.268       .  A
O77         Cr85   1.971       .  S
O77          C78   1.261       .  A
C78          O79   1.267       .  A
C78         C654   1.479       .  S
O79         Cr86   2.024       .  S
O80         Cr86   1.905       .  S
O80          C81   1.247       .  A
C81          O82   1.277       .  A
C81         C747   1.454       .  S
O82         Cr87   2.047       .  S
O83         Cr87   1.940       .  S
O83          C84   1.251       .  A
C84         C664   1.483       .  S
Cr85         O88   1.762       .  S
Cr86         O88   1.783       .  S
Cr87         O88   1.767       .  S
O89        Cr107   1.953       .  S
O89          C97   1.257       .  A
O90        Cr107   2.009       .  S
O90          C91   1.273       .  A
C91          O92   1.268       .  A
C91         C784   1.471       .  S
O92        Cr108   1.974       .  S
O93        Cr108   2.071       .  S
O93          C94   1.270       .  A
C94          O95   1.245       .  A
C94         C607   1.506       .  S
O95        Cr109   1.949       .  S
O96        Cr109   2.023       .  S
O96          C97   1.271       .  A
C97         C687   1.485       .  S
O98        Cr107   2.035       .  S
O98         C106   1.268       .  A
O99        Cr107   1.967       .  S
O99         C100   1.260       .  A
C100        O101   1.268       .  A
C100        C614   1.479       .  S
O101       Cr108   2.029       .  S
O102       Cr108   1.909       .  S
O102        C103   1.248       .  A
C103        O104   1.276       .  A
C103        C597   1.453       .  S
O104       Cr109   2.043       .  S
O105       Cr109   1.933       .  S
O105        C106   1.250       .  A
C106        C627   1.482       .  S
Cr107       O110   1.764       .  S
Cr108       O110   1.782       .  S
Cr109       O110   1.767       .  S
O111       Cr129   1.952       .  S
O111        C119   1.257       .  A
O112       Cr129   2.007       .  S
O112        C113   1.273       .  A
C113        O114   1.269       .  A
C113        C647   1.471       .  S
O114       Cr130   1.976       .  S
O115       Cr130   2.073       .  S
O115        C116   1.271       .  A
C116        O117   1.245       .  A
C116        C604   1.506       .  S
O117       Cr131   1.948       .  S
O118       Cr131   2.026       .  S
O118        C119   1.272       .  A
C119        C737   1.486       .  S
O120       Cr129   2.035       .  S
O120        C128   1.267       .  A
O121       Cr129   1.967       .  S
O121        C122   1.260       .  A
C122        O123   1.268       .  A
C122        C577   1.478       .  S
O123       Cr130   2.028       .  S
O124       Cr130   1.908       .  S
O124        C125   1.247       .  A
C125        O126   1.277       .  A
C125        C584   1.458       .  S
O126       Cr131   2.046       .  S
O127       Cr131   1.934       .  S
O127        C128   1.250       .  A
C128        C564   1.481       .  S
Cr129       O132   1.764       .  S
Cr130       O132   1.781       .  S
Cr131       O132   1.766       .  S
O133       Cr151   1.951       .  S
O133        C141   1.257       .  A
O134       Cr151   2.006       .  S
O134        C135   1.272       .  A
C135        O136   1.269       .  A
C135        C677   1.470       .  S
O136       Cr152   1.975   1_565  S
O137       Cr152   2.074       .  S
O137        C138   1.272       .  A
C138        O139   1.246       .  A
C138        C534   1.507       .  S
O139       Cr153   1.949       .  S
O140       Cr153   2.027   1_565  S
O140        C141   1.272       .  A
C141        C777   1.486       .  S
O142       Cr151   2.034   1_545  S
O142        C150   1.267       .  A
O143       Cr151   1.968   1_545  S
O143        C144   1.260       .  A
C144        O145   1.269       .  A
C144        C554   1.481       .  S
O145       Cr152   2.030       .  S
O146       Cr152   1.909       .  S
O146        C147   1.247       .  A
C147        O148   1.276       .  A
C147        C594   1.458       .  S
O148       Cr153   2.044       .  S
O149       Cr153   1.935       .  S
O149        C150   1.250       .  A
C150        C544   1.478       .  S
Cr151       O154   1.763   1_565  S
Cr152       O154   1.779       .  S
Cr153       O154   1.766       .  S
O155       Cr173   1.952   1_455  S
O155        C163   1.257       .  A
O156       Cr173   2.005   1_455  S
O156        C157   1.272       .  A
C157        O158   1.269   1_455  A
C157        C727   1.471       .  S
O158       Cr174   1.977       .  S
O159       Cr174   2.074       .  S
O159        C160   1.272       .  A
C160        O161   1.246       .  A
C160        C537   1.506       .  S
O161       Cr175   1.949       .  S
O162       Cr175   2.027       .  S
O162        C163   1.272   1_655  A
C163        C634   1.486       .  S
O164       Cr173   2.034       .  S
O164        C172   1.267       .  A
O165       Cr173   1.967       .  S
O165        C166   1.261       .  A
C166        O167   1.269       .  A
C166        C517   1.479       .  S
O167       Cr174   2.028       .  S
O168       Cr174   1.911       .  S
O168        C169   1.247       .  A
C169        O170   1.276       .  A
C169        C587   1.456       .  S
O170       Cr175   2.043       .  S
O171       Cr175   1.936       .  S
O171        C172   1.250       .  A
C172        C524   1.479       .  S
Cr173       O176   1.764       .  S
Cr174       O176   1.780       .  S
Cr175       O176   1.767       .  S
O177       Cr195   2.026       .  S
O177        C185   1.273       .  A
O178       Cr195   1.948       .  S
O178        C179   1.244       .  A
C179        O180   1.269       .  A
C179        C504   1.505       .  S
O180       Cr196   2.071       .  S
O181       Cr196   1.974       .  S
O181        C182   1.269       .  A
C182        O183   1.273       .  A
C182        C484   1.470       .  S
O183       Cr197   2.008       .  S
O184       Cr197   1.955       .  S
O184        C185   1.259       .  A
C185        C477   1.486       .  S
O186       Cr195   1.945       .  S
O186        C194   1.252       .  A
O187       Cr195   2.051       .  S
O187        C188   1.278       .  A
C188        O189   1.247       .  A
C188        C494   1.459       .  S
O189       Cr196   1.907       .  S
O190       Cr196   2.029       .  S
O190        C191   1.267       .  A
C191        O192   1.261       .  A
C191        C567   1.480       .  S
O192       Cr197   1.967       .  S
O193       Cr197   2.029       .  S
O193        C194   1.267       .  A
C194        C514   1.484       .  S
Cr195       O198   1.765       .  S
Cr196       O198   1.783       .  S
Cr197       O198   1.760       .  S
O199       Cr217   2.027       .  S
O199        C207   1.273   1_655  A
O200       Cr217   1.949       .  S
O200        C201   1.245       .  A
C201        O202   1.269       .  A
C201        C507   1.505       .  S
O202       Cr218   2.071       .  S
O203       Cr218   1.972       .  S
O203        C204   1.268   1_655  A
C204        O205   1.274       .  A
C204        C444   1.470       .  S
O205       Cr219   2.012   1_455  S
O206       Cr219   1.951   1_455  S
O206        C207   1.258       .  A
C207        C454   1.484       .  S
O208       Cr217   1.944       .  S
O208        C216   1.252       .  A
O209       Cr217   2.052       .  S
O209        C210   1.279       .  A
C210        O211   1.246       .  A
C210        C464   1.459       .  S
O211       Cr218   1.904       .  S
O212       Cr218   2.028       .  S
O212        C213   1.266       .  A
C213        O214   1.260       .  A
C213        C547   1.478       .  S
O214       Cr219   1.966       .  S
O215       Cr219   2.031       .  S
O215        C216   1.267       .  A
C216        C617   1.484       .  S
Cr217       O220   1.764       .  S
Cr218       O220   1.782       .  S
Cr219       O220   1.760       .  S
O221       Cr239   2.027   1_565  S
O221        C229   1.273       .  A
O222       Cr239   1.945       .  S
O222        C223   1.244       .  A
C223        O224   1.270       .  A
C223        C434   1.509       .  S
O224       Cr240   2.074       .  S
O225       Cr240   1.976   1_565  S
O225        C226   1.269       .  A
C226        O227   1.273       .  A
C226        C414   1.471       .  S
O227       Cr241   2.008       .  S
O228       Cr241   1.954       .  S
O228        C229   1.259       .  A
C229        C424   1.486       .  S
O230       Cr239   1.945       .  S
O230        C238   1.251       .  A
O231       Cr239   2.049       .  S
O231        C232   1.278       .  A
C232        O233   1.247       .  A
C232        C497   1.458       .  S
O233       Cr240   1.907       .  S
O234       Cr240   2.030       .  S
O234        C235   1.268       .  A
C235        O236   1.261       .  A
C235        C527   1.478       .  S
O236       Cr241   1.967   1_545  S
O237       Cr241   2.030   1_545  S
O237        C238   1.267       .  A
C238        C574   1.483       .  S
Cr239       O242   1.764       .  S
Cr240       O242   1.784       .  S
Cr241       O242   1.761   1_565  S
O243       Cr261   2.027       .  S
O243        C251   1.273       .  A
O244       Cr261   1.952       .  S
O244        C245   1.246       .  A
C245        O246   1.269       .  A
C245        C437   1.503       .  S
O246       Cr262   2.069       .  S
O247       Cr262   1.973       .  S
O247        C248   1.268       .  A
C248        O249   1.273       .  A
C248        C404   1.471       .  S
O249       Cr263   2.010       .  S
O250       Cr263   1.954       .  S
O250        C251   1.258       .  A
C251        C394   1.486       .  S
O252       Cr261   1.945       .  S
O252        C260   1.252       .  A
O253       Cr261   2.046       .  S
O253        C254   1.278       .  A
C254        O255   1.247       .  A
C254        C467   1.453       .  S
O255       Cr262   1.907       .  S
O256       Cr262   2.029       .  S
O256        C257   1.267       .  A
C257        O258   1.260       .  A
C257        C624   1.481       .  S
O258       Cr263   1.965       .  S
O259       Cr263   2.031       .  S
O259        C260   1.267       .  A
C260        C557   1.485       .  S
Cr261       O264   1.766       .  S
Cr262       O264   1.783       .  S
Cr263       O264   1.761       .  S
O265       Cr283   2.021       .  S
O265        C273   1.271       .  A
O266       Cr283   1.948       .  S
O266        C267   1.244       .  A
C267        O268   1.269       .  A
C267        C384   1.507       .  S
O268       Cr284   2.072       .  S
O269       Cr284   1.976       .  S
O269        C270   1.269       .  A
C270        O271   1.273       .  A
C270        C427   1.470       .  S
O271       Cr285   2.007       .  S
O272       Cr285   1.955       .  S
O272        C273   1.258       .  A
C273        C487   1.485       .  S
O274       Cr283   1.939       .  S
O274        C282   1.251       .  A
O275       Cr283   2.045       .  S
O275        C276   1.277       .  A
C276        O277   1.247       .  A
C276        C374   1.454       .  S
O277       Cr284   1.906       .  S
O278       Cr284   2.024       .  S
O278        C279   1.267       .  A
C279        O280   1.261       .  A
C279        C667   1.477       .  S
O280       Cr285   1.971       .  S
O281       Cr285   2.033       .  S
O281        C282   1.268       .  A
C282        C767   1.484       .  S
Cr283       O286   1.767       .  S
Cr284       O286   1.783       .  S
Cr285       O286   1.763       .  S
O287       Cr305   2.024       .  S
O287        C295   1.271       .  A
O288       Cr305   1.949       .  S
O288        C289   1.246       .  A
C289        O290   1.271       .  A
C289        C387   1.507       .  S
O290       Cr306   2.072       .  S
O291       Cr306   1.973       .  S
O291        C292   1.268       .  A
C292        O293   1.272       .  A
C292        C457   1.470       .  S
O293       Cr307   2.007       .  S
O294       Cr307   1.953       .  S
O294        C295   1.257       .  A
C295        C407   1.486       .  S
O296       Cr305   1.936       .  S
O296        C304   1.251       .  A
O297       Cr305   2.041       .  S
O297        C298   1.276       .  A
C298        O299   1.248       .  A
C298        C364   1.450       .  S
O299       Cr306   1.909       .  S
O300       Cr306   2.033       .  S
O300        C301   1.269       .  A
C301        O302   1.260       .  A
C301        C817   1.482       .  S
O302       Cr307   1.965       .  S
O303       Cr307   2.034       .  S
O303        C304   1.267       .  A
C304        C717   1.484       .  S
Cr305       O308   1.767       .  S
Cr306       O308   1.783       .  S
Cr307       O308   1.763       .  S
O309       Cr327   2.022   1_655  S
O309        C317   1.271       .  A
O310       Cr327   1.948       .  S
O310        C311   1.244       .  A
C311        O312   1.268       .  A
C311        C354   1.508       .  S
O312       Cr328   2.071       .  S
O313       Cr328   1.976   1_655  S
O313        C314   1.270       .  A
C314        O315   1.274       .  A
C314        C474   1.472       .  S
O315       Cr329   2.008       .  S
O316       Cr329   1.956       .  S
O316        C317   1.258       .  A
C317        C417   1.486       .  S
O318       Cr327   1.940       .  S
O318        C326   1.251       .  A
O319       Cr327   2.047       .  S
O319        C320   1.278       .  A
C320        O321   1.248       .  A
C320        C377   1.456       .  S
O321       Cr328   1.905       .  S
O322       Cr328   2.023       .  S
O322        C323   1.266       .  A
C323        O324   1.261       .  A
C323        C757   1.477       .  S
O324       Cr329   1.972   1_455  S
O325       Cr329   2.032   1_455  S
O325        C326   1.268       .  A
C326        C657   1.486       .  S
Cr327       O330   1.768       .  S
Cr328       O330   1.785       .  S
Cr329       O330   1.763   1_655  S
O331       Cr349   2.026       .  S
O331        C339   1.272   1_565  A
O332       Cr349   1.947       .  S
O332        C333   1.244       .  A
C333        O334   1.271       .  A
C333        C357   1.508       .  S
O334       Cr350   2.078       .  S
O335       Cr350   1.972       .  S
O335        C336   1.269   1_565  A
C336        O337   1.275       .  A
C336        C397   1.471       .  S
O337       Cr351   2.013   1_545  S
O338       Cr351   1.952   1_545  S
O338        C339   1.257       .  A
C339        C447   1.485       .  S
O340       Cr349   1.935       .  S
O340        C348   1.251       .  A
O341       Cr349   2.052       .  S
O341        C342   1.278       .  A
C342        O343   1.246       .  A
C342        C367   1.458       .  S
O343       Cr350   1.905       .  S
O344       Cr350   2.034       .  S
O344        C345   1.268       .  A
C345        O346   1.259       .  A
C345        C707   1.484       .  S
O346       Cr351   1.964       .  S
O347       Cr351   2.035       .  S
O347        C348   1.269       .  A
C348        C827   1.487       .  S
Cr349       O352   1.765       .  S
Cr350       O352   1.780       .  S
Cr351       O352   1.759       .  S
C353        C354   1.408       .  A
C353        C358   1.403       .  A
C353        H359   1.083       .  S
C354        C355   1.413       .  A
C355        C356   1.418       .  A
C355        H360   1.083       .  S
C356        C357   1.413       .  A
C356        H361   1.083       .  S
C357        C358   1.410       .  A
C358        H362   1.083       .  S
C363        C364   1.388       .  A
C363        C368   1.385       .  A
C363        H369   1.084       .  S
C364        C365   1.412       .  A
C365        C366   1.388       .  A
C365        H370   1.084       .  S
C366        C367   1.392       .  A
C366        H371   1.083       .  S
C367        C368   1.415       .  A
C368        H372   1.083       .  S
C373        C374   1.390       .  A
C373        C378   1.386       .  A
C373        H379   1.083       .  S
C374        C375   1.413       .  A
C375        C376   1.386       .  A
C375        H380   1.083       .  S
C376        C377   1.390       .  A
C376        H381   1.083       .  S
C377        C378   1.414       .  A
C378        H382   1.083       .  S
C383        C384   1.409       .  A
C383        C388   1.403       .  A
C383        H389   1.083       .  S
C384        C385   1.412       .  A
C385        C386   1.417       .  A
C385        H390   1.083       .  S
C386        C387   1.413       .  A
C386        H391   1.083       .  S
C387        C388   1.409       .  A
C388        H392   1.083       .  S
C393        C394   1.406       .  A
C393        C398   1.404       .  A
C393        H399   1.083       .  S
C394        C395   1.409       .  A
C395        C396   1.393       .  A
C395        H400   1.083       .  S
C396        C397   1.399       .  A
C396        H401   1.084       .  S
C397        C398   1.407       .  A
C398        H402   1.083   1_545  S
C403        C404   1.399       .  A
C403        C408   1.393       .  A
C403        H409   1.084       .  S
C404        C405   1.407       .  A
C405        C406   1.405       .  A
C405        H410   1.083       .  S
C406        C407   1.406       .  A
C406        H411   1.083       .  S
C407        C408   1.409       .  A
C408        H412   1.083       .  S
C413        C414   1.400       .  A
C413        C418   1.393       .  A
C413        H419   1.084       .  S
C414        C415   1.406       .  A
C415        C416   1.405       .  A
C415        H420   1.083       .  S
C416        C417   1.406       .  A
C416        H421   1.083       .  S
C417        C418   1.409       .  A
C418        H422   1.083       .  S
C423        C424   1.409       .  A
C423        C428   1.394       .  A
C423        H429   1.083       .  S
C424        C425   1.406       .  A
C425        C426   1.405       .  A
C425        H430   1.083       .  S
C426        C427   1.407       .  A
C426        H431   1.083       .  S
C427        C428   1.399       .  A
C428        H432   1.084       .  S
C433        C434   1.412       .  A
C433        C438   1.403       .  A
C433        H439   1.083       .  S
C434        C435   1.411       .  A
C435        C436   1.417       .  A
C435        H440   1.083       .  S
C436        C437   1.414       .  A
C436        H441   1.083       .  S
C437        C438   1.405       .  A
C438        H442   1.083       .  S
C443        C444   1.407       .  A
C443        C448   1.404       .  A
C443        H449   1.083       .  S
C444        C445   1.399       .  A
C445        C446   1.393       .  A
C445        H450   1.084       .  S
C446        C447   1.410       .  A
C446        H451   1.083       .  S
C447        C448   1.406       .  A
C448        H452   1.083       .  S
C453        C454   1.409       .  A
C453        C458   1.393       .  A
C453        H459   1.083       .  S
C454        C455   1.406       .  A
C455        C456   1.404       .  A
C455        H460   1.083       .  S
C456        C457   1.407       .  A
C456        H461   1.083       .  S
C457        C458   1.399       .  A
C458        H462   1.084       .  S
C463        C464   1.416       .  A
C463        C468   1.386       .  A
C463        H469   1.083       .  S
C464        C465   1.391       .  A
C465        C466   1.388       .  A
C465        H470   1.083       .  S
C466        C467   1.413       .  A
C466        H471   1.084       .  S
C467        C468   1.388       .  A
C468        H472   1.084       .  S
C473        C474   1.407       .  A
C473        C478   1.405       .  A
C473        H479   1.083       .  S
C474        C475   1.400       .  A
C475        C476   1.394       .  A
C475        H480   1.084       .  S
C476        C477   1.409       .  A
C476        H481   1.083       .  S
C477        C478   1.406       .  A
C478        H482   1.083       .  S
C483        C484   1.406       .  A
C483        C488   1.404       .  A
C483        H489   1.083       .  S
C484        C485   1.400       .  A
C485        C486   1.393       .  A
C485        H490   1.084       .  S
C486        C487   1.409       .  A
C486        H491   1.083       .  S
C487        C488   1.406       .  A
C488        H492   1.083       .  S
C493        C494   1.390       .  A
C493        C498   1.388       .  A
C493        H499   1.083       .  S
C494        C495   1.415       .  A
C495        C496   1.387       .  A
C495        H500   1.083       .  S
C496        C497   1.390       .  A
C496        H501   1.083       .  S
C497        C498   1.415       .  A
C498        H502   1.083       .  S
C503        C504   1.408       .  A
C503        C508   1.402       .  A
C503        H509   1.083       .  S
C504        C505   1.412       .  A
C505        C506   1.417       .  A
C505        H510   1.083       .  S
C506        C507   1.412       .  A
C506        H511   1.083       .  S
C507        C508   1.409       .  A
C508        H512   1.083       .  S
C513        C514   1.407       .  A
C513        C518   1.390   1_554  A
C513        H519   1.083       .  S
C514        C515   1.407   1_554  A
C515        C516   1.409       .  A
C515        H520   1.083       .  S
C516        C517   1.409       .  A
C516        H521   1.082       .  S
C517        C518   1.400       .  A
C518        H522   1.084   1_556  S
C523        C524   1.406   1_554  A
C523        C528   1.411       .  A
C523        H529   1.083       .  S
C524        C525   1.405       .  A
C525        C526   1.385   1_556  A
C525        H530   1.084       .  S
C526        C527   1.400       .  A
C526        H531   1.084       .  S
C527        C528   1.410       .  A
C528        H532   1.082       .  S
C533        C534   1.409       .  A
C533        C538   1.403       .  A
C533        H539   1.083       .  S
C534        C535   1.412       .  A
C535        C536   1.417       .  A
C535        H540   1.083       .  S
C536        C537   1.413       .  A
C536        H541   1.083       .  S
C537        C538   1.409       .  A
C538        H542   1.083       .  S
C543        C544   1.405       .  A
C543        C548   1.385       .  A
C543        H549   1.084       .  S
C544        C545   1.406       .  A
C545        C546   1.411       .  A
C545        H550   1.083       .  S
C546        C547   1.410       .  A
C546        H551   1.082       .  S
C547        C548   1.400       .  A
C548        H552   1.084       .  S
C553        C554   1.409       .  A
C553        C558   1.410       .  A
C553        H559   1.082       .  S
C554        C555   1.400       .  A
C555        C556   1.391       .  A
C555        H560   1.084       .  S
C556        C557   1.407       .  A
C556        H561   1.083       .  S
C557        C558   1.407       .  A
C558        H562   1.083       .  S
C563        C564   1.406   1_554  A
C563        C568   1.412       .  A
C563        H569   1.083       .  S
C564        C565   1.406       .  A
C565        C566   1.385   1_556  A
C565        H570   1.084       .  S
C566        C567   1.400       .  A
C566        H571   1.084   1_554  S
C567        C568   1.411       .  A
C568        H572   1.082       .  S
C573        C574   1.407       .  A
C573        C578   1.390   1_554  A
C573        H579   1.083       .  S
C574        C575   1.407   1_554  A
C575        C576   1.409       .  A
C575        H580   1.083       .  S
C576        C577   1.409       .  A
C576        H581   1.082       .  S
C577        C578   1.400       .  A
C578        H582   1.084   1_556  S
C583        C584   1.414       .  A
C583        C588   1.386       .  A
C583        H589   1.083       .  S
C584        C585   1.391       .  A
C585        C586   1.388       .  A
C585        H590   1.083       .  S
C586        C587   1.413       .  A
C586        H591   1.083       .  S
C587        C588   1.391       .  A
C588        H592   1.083       .  S
C593        C594   1.414       .  A
C593        C598   1.386       .  A
C593        H599   1.083       .  S
C594        C595   1.392       .  A
C595        C596   1.387       .  A
C595        H600   1.083       .  S
C596        C597   1.412       .  A
C596        H601   1.084       .  S
C597        C598   1.390       .  A
C598        H602   1.084       .  S
C603        C604   1.409       .  A
C603        C608   1.403       .  A
C603        H609   1.083       .  S
C604        C605   1.412       .  A
C605        C606   1.416       .  A
C605        H610   1.083       .  S
C606        C607   1.413       .  A
C606        H611   1.083       .  S
C607        C608   1.409       .  A
C608        H612   1.083       .  S
C613        C614   1.409       .  A
C613        C618   1.410       .  A
C613        H619   1.082       .  S
C614        C615   1.400       .  A
C615        C616   1.390       .  A
C615        H620   1.084       .  S
C616        C617   1.407       .  A
C616        H621   1.083       .  S
C617        C618   1.407       .  A
C618        H622   1.083       .  S
C623        C624   1.411       .  A
C623        C628   1.412       .  A
C623        H629   1.082       .  S
C624        C625   1.400       .  A
C625        C626   1.384       .  A
C625        H630   1.084       .  S
C626        C627   1.406       .  A
C626        H631   1.083       .  S
C627        C628   1.406       .  A
C628        H632   1.083       .  S
C633        C634   1.406       .  A
C633        C638   1.405       .  A
C633        H639   1.083       .  S
C634        C635   1.410       .  A
C635        C636   1.393       .  A
C635        H640   1.083       .  S
C636        C637   1.399       .  A
C636        H641   1.084       .  S
C637        C638   1.407       .  A
C638        H642   1.083   1_545  S
C643        C644   1.409       .  A
C643        C648   1.394       .  A
C643        H649   1.083       .  S
C644        C645   1.406       .  A
C645        C646   1.404       .  A
C645        H650   1.083       .  S
C646        C647   1.406       .  A
C646        H651   1.083       .  S
C647        C648   1.400       .  A
C648        H652   1.084       .  S
C653        C654   1.409       .  A
C653        C658   1.409       .  A
C653        H659   1.082       .  S
C654        C655   1.399       .  A
C655        C656   1.390   1_556  A
C655        H660   1.084   1_556  S
C656        C657   1.408       .  A
C656        H661   1.082       .  S
C657        C658   1.406   1_554  A
C658        H662   1.083       .  S
C663        C664   1.406   1_554  A
C663        C668   1.409       .  A
C663        H669   1.083       .  S
C664        C665   1.408       .  A
C665        C666   1.390       .  A
C665        H670   1.083       .  S
C666        C667   1.399   1_556  A
C666        H671   1.084       .  S
C667        C668   1.409       .  A
C668        H672   1.082       .  S
C673        C674   1.409       .  A
C673        C678   1.393       .  A
C673        H679   1.083       .  S
C674        C675   1.406       .  A
C675        C676   1.404       .  A
C675        H680   1.083       .  S
C676        C677   1.406       .  A
C676        H681   1.083       .  S
C677        C678   1.400       .  A
C678        H682   1.084       .  S
C683        C684   1.399       .  A
C683        C688   1.393       .  A
C683        H689   1.084       .  S
C684        C685   1.406       .  A
C685        C686   1.404       .  A
C685        H690   1.083       .  S
C686        C687   1.406       .  A
C686        H691   1.083       .  S
C687        C688   1.409       .  A
C688        H692   1.083       .  S
C693        C694   1.413       .  A
C693        C698   1.418       .  A
C693        H699   1.083       .  S
C694        C695   1.409       .  A
C695        C696   1.403       .  A
C695        H700   1.083       .  S
C696        C697   1.409       .  A
C696        H701   1.083       .  S
C697        C698   1.413       .  A
C698        H702   1.083       .  S
C703        C704   1.408       .  A
C703        C708   1.412       .  A
C703        H709   1.083       .  S
C704        C705   1.408       .  A
C705        C706   1.387       .  A
C705        H710   1.082       .  S
C706        C707   1.401       .  A
C706        H711   1.084       .  S
C707        C708   1.410       .  A
C708        H712   1.082       .  S
C713        C714   1.401       .  A
C713        C718   1.384       .  A
C713        H719   1.084       .  S
C714        C715   1.411       .  A
C715        C716   1.412       .  A
C715        H720   1.082       .  S
C716        C717   1.407       .  A
C716        H721   1.083       .  S
C717        C718   1.406       .  A
C718        H722   1.083       .  S
C723        C724   1.406       .  A
C723        C728   1.405       .  A
C723        H729   1.083       .  S
C724        C725   1.409       .  A
C725        C726   1.394       .  A
C725        H730   1.083       .  S
C726        C727   1.400       .  A
C726        H731   1.084       .  S
C727        C728   1.407       .  A
C728        H732   1.083       .  S
C733        C734   1.407       .  A
C733        C738   1.405       .  A
C733        H739   1.083       .  S
C734        C735   1.399       .  A
C735        C736   1.393       .  A
C735        H740   1.084       .  S
C736        C737   1.410       .  A
C736        H741   1.083       .  S
C737        C738   1.406       .  A
C738        H742   1.083       .  S
C743        C744   1.391       .  A
C743        C748   1.386       .  A
C743        H749   1.083       .  S
C744        C745   1.416       .  A
C745        C746   1.386       .  A
C745        H750   1.083       .  S
C746        C747   1.389       .  A
C746        H751   1.084       .  S
C747        C748   1.413       .  A
C748        H752   1.084       .  S
C753        C754   1.406   1_554  A
C753        C758   1.409       .  A
C753        H759   1.083       .  S
C754        C755   1.408       .  A
C755        C756   1.390       .  A
C755        H760   1.083       .  S
C756        C757   1.399   1_556  A
C756        H761   1.084       .  S
C757        C758   1.409       .  A
C758        H762   1.082       .  S
C763        C764   1.399       .  A
C763        C768   1.390   1_556  A
C763        H769   1.084   1_556  S
C764        C765   1.409       .  A
C765        C766   1.409       .  A
C765        H770   1.082       .  S
C766        C767   1.406   1_556  A
C766        H771   1.083       .  S
C767        C768   1.408       .  A
C768        H772   1.083       .  S
C773        C774   1.407       .  A
C773        C778   1.405       .  A
C773        H779   1.083       .  S
C774        C775   1.399       .  A
C775        C776   1.393       .  A
C775        H780   1.084       .  S
C776        C777   1.410       .  A
C776        H781   1.083       .  S
C777        C778   1.406       .  A
C778        H782   1.083       .  S
C783        C784   1.407       .  A
C783        C788   1.405       .  A
C783        H789   1.083       .  S
C784        C785   1.399       .  A
C785        C786   1.393       .  A
C785        H790   1.084       .  S
C786        C787   1.409       .  A
C786        H791   1.083       .  S
C787        C788   1.406       .  A
C788        H792   1.083       .  S
C793        C794   1.391       .  A
C793        C798   1.387       .  A
C793        H799   1.083       .  S
C794        C795   1.415       .  A
C795        C796   1.386       .  A
C795        H800   1.083       .  S
C796        C797   1.389       .  A
C796        H801   1.084       .  S
C797        C798   1.412       .  A
C798        H802   1.084       .  S
C803        C804   1.413       .  A
C803        C808   1.417       .  A
C803        H809   1.083       .  S
C804        C805   1.407       .  A
C805        C806   1.402       .  A
C805        H810   1.083       .  S
C806        C807   1.410       .  A
C806        H811   1.083       .  S
C807        C808   1.412       .  A
C808        H812   1.083       .  S
C813        C814   1.408       .  A
C813        C818   1.411       .  A
C813        H819   1.083       .  S
C814        C815   1.407       .  A
C815        C816   1.389       .  A
C815        H820   1.083       .  S
C816        C817   1.401       .  A
C816        H821   1.084       .  S
C817        C818   1.409       .  A
C818        H822   1.082       .  S
C823        C824   1.400       .  A
C823        C828   1.387       .  A
C823        H829   1.084       .  S
C824        C825   1.410       .  A
C825        C826   1.410       .  A
C825        H830   1.082       .  S
C826        C827   1.407       .  A
C826        H831   1.083       .  S
C827        C828   1.409       .  A
C828        H832   1.082       .  S
