geometry optimzed in LAMMPS
_audit_creation_date              2020-11-30 
_audit_creation_method            'lammps2cif' 
_symmetry_space_group_name_H-M    'P1' 
_symmetry_Int_Tables_number       1 
_symmetry_cell_setting            triclinic 
loop_ 
_symmetry_equiv_pos_as_xyz 
  x,y,z 
_cell_length_a                    24.275834648284963 
_cell_length_b                    24.51889879815903 
_cell_length_c                    47.61882397339377 
_cell_angle_alpha                 89.10634901587478 
_cell_angle_beta                  89.95438802035787 
_cell_angle_gamma                 87.20239850459375 
loop_ 
_atom_site_label 
_atom_site_type_symbol 
_atom_site_fract_x 
_atom_site_fract_y 
_atom_site_fract_z 
_atom_site_charge 
O1          O  0.98110029  0.35757012  0.70080733    -0.81520
O2          O  0.93192257  0.59560548  0.74683244    -0.66210
O3          O  0.97932072  0.47058736  0.70536570    -1.12810
C4          C  0.11051888  0.46060712  0.78065420     1.05370
O5          O  0.01771581  0.62056221  0.74249589    -0.79420
O6          O  0.11637078  0.55757340  0.73646198    -0.67000
Ni7        Ni  0.92636311  0.41658034  0.69845583     1.34870
C8          C  0.12819082  0.52307459  0.71741452     0.84100
O9          O  0.89193599  0.55166637  0.70144502    -0.79960
O10         O  0.86347659  0.46804385  0.69459645    -0.90230
C11         C  0.96744756  0.63139544  0.74896451     0.83670
O12         O  0.91055339  0.40569387  0.73740939    -0.68440
O13         O  0.09690949  0.51048501  0.78565723    -0.87720
C14         C  0.89597071  0.44174360  0.75517244     0.84500
C15         C  0.85488784  0.51965130  0.69469555     1.06070
H16         H  0.99457107  0.49753988  0.76834195     0.37880
O17         O  0.01032012  0.51168817  0.75124547    -1.10380
O18         O  0.09367110  0.48824202  0.71000762    -0.67040
Ni19       Ni  0.03832193  0.45107323  0.73176367     1.26350
O20         O  0.90291474  0.49259967  0.75109849    -0.67260
O21         O  0.09308552  0.43407426  0.75981599    -0.79560
C22         C  0.03245798  0.35006054  0.70553511     0.83890
O23         O  0.06325015  0.38748831  0.71265367    -0.66730
Ni24       Ni  0.05772032  0.56483569  0.76357363     1.27450
Ni25       Ni  0.95180663  0.53230695  0.72626640     1.26060
H26         H  0.99443161  0.48287055  0.68772046     0.38430
O27         O  0.00195819  0.86304478  0.76090580    -0.81520
O28         O  0.04548319  0.08780378  0.72505167    -0.66210
O29         O  0.99180938  0.97127949  0.76721929    -1.12650
C30         C  0.83038442  0.98379758  0.71429187     1.05370
O31         O  0.96327796  0.12806000  0.71457640    -0.79420
O32         O  0.89932064  0.08619994  0.75519607    -0.67000
Ni33       Ni  0.03934500  0.91544883  0.78171675     1.34870
C34         C  0.88422562  0.05115930  0.77321183     0.84100
O35         O  0.07758087  0.04043508  0.77364473    -0.79960
O36         O  0.07753085  0.96753449  0.80305452    -0.90230
C37         C  0.01536392  0.12860545  0.71710001     0.83670
O38         O  0.09766184  0.91592925  0.75471809    -0.68440
O39         O  0.84124027  0.03391031  0.71556909    -0.87720
C40         C  0.10664038  0.94481035  0.73302697     0.84500
C41         C  0.09312251  0.01505711  0.79631635     1.06070
H42         H  0.97176440  0.00290876  0.70331848     0.37880
O43         O  0.95850780  0.01581485  0.72128540    -1.10380
O44         O  0.88541668  0.99996644  0.76841767    -0.67040
Ni45       Ni  0.93144346  0.95628856  0.74298347     1.26350
O46         O  0.07208266  0.98264289  0.72457013    -0.67260
O47         O  0.86754145  0.94600650  0.71923511    -0.79560
C48         C  0.95144730  0.85384302  0.76514323     0.83890
O49         O  0.91414775  0.89217126  0.76384484    -0.66730
Ni50       Ni  0.90640559  0.07636412  0.71586978     1.27450
Ni51       Ni  0.02019364  0.02827123  0.74632423     1.26060
H52         H  0.97699578  0.98799314  0.78399337     0.38430
O53         O  0.54591401  0.37365526  0.67632138    -0.81520
O54         O  0.52485475  0.59225487  0.62020943    -0.66210
O55         O  0.51065783  0.48253619  0.67621093    -1.12810
C56         C  0.36611819  0.44029875  0.61537605     1.05370
O57         O  0.43784733  0.61671424  0.63053302    -0.79420
O58         O  0.36321174  0.55615231  0.65793848    -0.67000
Ni59       Ni  0.57467342  0.44018449  0.68775472     1.34870
C60         C  0.35612953  0.51702306  0.67504821     0.84100
O61         O  0.59228614  0.56091965  0.66319973    -0.79960
O62         O  0.60792336  0.50441016  0.69979711    -0.90230
C63         C  0.48461620  0.62733008  0.62023676     0.83670
O64         O  0.61646814  0.43884819  0.65321663    -0.68440
O65         O  0.35887287  0.49201121  0.61239684    -0.87720
C66         C  0.60441390  0.45506157  0.62837106     0.84500
C67         C  0.62278028  0.54229887  0.68347121     1.06070
H68         H  0.47062914  0.49282652  0.61343482     0.37880
O69         O  0.45975384  0.50777343  0.63137430    -1.10380
O70         O  0.39101258  0.47630144  0.67774864    -0.67040
Ni71       Ni  0.45414083  0.44772241  0.65570057     1.26350
O72         O  0.56510838  0.48980703  0.62348609    -0.67260
O73         O  0.40134512  0.41612191  0.63194475    -0.79560
C74         C  0.49953871  0.35564802  0.68261712     0.83890
O75         O  0.45551189  0.38547585  0.68013685    -0.66730
Ni76       Ni  0.39884986  0.55378393  0.62226890     1.27450
Ni77       Ni  0.52286330  0.53669498  0.64802653     1.26060
H78         H  0.49435436  0.50007495  0.69246458     0.38430
O79         O  0.42725584  0.11812946  0.68294467    -0.81520
O80         O  0.42813988  0.87396194  0.64160747    -0.66210
O81         O  0.44282897  0.00795681  0.67957598    -1.12810
C82         C  0.58149338  0.02047940  0.60752143     1.05370
O83         O  0.51506330  0.86788582  0.65367262    -0.79420
O84         O  0.60183196  0.93164134  0.65418700    -0.67000
Ni85       Ni  0.38071863  0.05872945  0.67972290     1.34870
C86         C  0.60369104  0.96298789  0.67487789     0.84100
O87         O  0.36620030  0.92396847  0.68249499    -0.79960
O88         O  0.32448798  0.00620687  0.67816973    -0.90230
C89         C  0.47343791  0.84567135  0.64416099     0.83670
O90         O  0.38180252  0.06522912  0.63987539    -0.68440
O91         O  0.57538594  0.96952022  0.60355926    -0.87720
C92         C  0.37393607  0.02680167  0.62295086     0.84500
C93         C  0.32300331  0.95570441  0.68405748     1.06070
H94         H  0.47455706  0.97796558  0.61880457     0.37880
O95         O  0.48902316  0.96605586  0.63686268    -1.10380
O96         O  0.56209140  0.99499507  0.68108680    -0.67040
Ni97       Ni  0.50474147  0.02850583  0.65592860     1.26350
O98         O  0.38019120  0.97635754  0.63052254    -0.67260
O99         O  0.56187890  0.04648227  0.62897567    -0.79560
C100        C  0.47806058  0.12803325  0.68298360     0.83890
O101        O  0.51564286  0.09368632  0.67542124    -0.66730
Ni102      Ni  0.54608618  0.91652750  0.62808458     1.27450
Ni103      Ni  0.42931011  0.94289944  0.65974331     1.26060
H104        H  0.45493589  0.99922079  0.69851447     0.38430
O105        O  0.85714052  0.23738044  0.49116127    -0.81520
O106        O  0.61918949  0.30073959  0.46775882    -0.66210
O107        O  0.74819924  0.24201140  0.50340268    -1.12810
C108        C  0.72718192  0.08493135  0.44632372     1.05370
O109        O  0.58357772  0.21972575  0.46990296    -0.79420
O110        O  0.63496495  0.13114883  0.49078317    -0.67000
Ni111      Ni  0.80765394  0.28450149  0.51226393     1.34870
C112        C  0.67022493  0.12498216  0.51033115     0.84100
O113        O  0.67582009  0.32957339  0.51400998    -0.79960
O114        O  0.75939459  0.33026802  0.53495122    -0.90230
C115        C  0.57920603  0.27038796  0.46435779     0.83670
O116        O  0.80196021  0.33895096  0.48268631    -0.68440
O117        O  0.68137202  0.10910395  0.43942019    -0.87720
C118        C  0.76404893  0.35196503  0.46506522     0.84500
C119        C  0.70809390  0.34512418  0.53338319     1.06070
H120        H  0.70841171  0.22495577  0.44294883     0.37880
O121        O  0.69613237  0.21169365  0.46099858    -1.10380
O122        O  0.71879365  0.14111028  0.50882206    -0.67040
Ni123      Ni  0.75844197  0.17856287  0.48052629     1.26350
O124        O  0.72199589  0.32347535  0.46171239    -0.67260
O125        O  0.76389749  0.10965218  0.45990897    -0.79560
C126        C  0.86393346  0.18667197  0.49755515     0.83890
O127        O  0.82383323  0.15564592  0.49944140    -0.66730
Ni128      Ni  0.63545108  0.16694854  0.45490314     1.27450
Ni129      Ni  0.68484793  0.27309165  0.48614339     1.26060
H130        H  0.73598492  0.22999128  0.52168643     0.38430
O131        O  0.36286986  0.19930513  0.45688326    -0.81520
O132        O  0.12997642  0.13734364  0.50626630    -0.66210
O133        O  0.25065827  0.18884053  0.46434433    -1.12810
C134        C  0.24551284  0.31042445  0.54169898     1.05370
O135        O  0.09531816  0.22291486  0.50217963    -0.79420
O136        O  0.14872638  0.32214288  0.49999771    -0.67000
Ni137      Ni  0.31327079  0.14088870  0.45829145     1.34870
C138        C  0.17811528  0.33336447  0.47872466     0.84100
O139        O  0.18265537  0.09692557  0.46146954    -0.79960
O140        O  0.27197493  0.07648379  0.45725321    -0.90230
C141        C  0.08912111  0.17167613  0.50490990     0.83670
O142        O  0.32531090  0.12989213  0.49779513    -0.68440
O143        O  0.19829262  0.29315076  0.54808259    -0.87720
C144        C  0.29154595  0.10934635  0.51508915     0.84500
C145        C  0.22228534  0.06242860  0.45681030     1.06070
H146        H  0.22325509  0.19953867  0.52731972     0.37880
O147        O  0.20585154  0.21524873  0.51065121    -1.10380
O148        O  0.21383209  0.29853145  0.46919539    -0.67040
Ni149      Ni  0.26156249  0.24719955  0.49041145     1.26350
O150        O  0.23956552  0.11058593  0.51033117    -0.67260
O151        O  0.27087211  0.30086660  0.51856495    -0.79560
C152        C  0.36094960  0.25084362  0.45971618     0.83890
O153        O  0.31992042  0.27732554  0.46993045    -0.66730
Ni154      Ni  0.14707587  0.25888096  0.52475436     1.27450
Ni155      Ni  0.19267242  0.15785039  0.48578396     1.26060
H156        H  0.23647641  0.20314407  0.44661402     0.38430
O157        O  0.35484813  0.68867167  0.43433789    -0.81520
O158        O  0.11443711  0.75755541  0.40170077    -0.66210
O159        O  0.24049216  0.69969722  0.44118033    -1.12810
C160        C  0.22908189  0.57049231  0.36801525     1.05370
O161        O  0.08244090  0.67561586  0.41025969    -0.79420
O162        O  0.13669620  0.57153473  0.41486374    -0.67000
Ni163      Ni  0.30216010  0.74226183  0.44799287     1.34870
C164        C  0.17145236  0.55868290  0.43410474     0.84100
O165        O  0.17394013  0.80113785  0.44165517    -0.79960
O166        O  0.25578088  0.79976264  0.46299076    -0.90230
C167        C  0.07483463  0.72564577  0.40273087     0.83670
O168        O  0.30529301  0.77822816  0.41180843    -0.68440
O169        O  0.17908788  0.58788373  0.36408267    -0.87720
C170        C  0.27059098  0.78787731  0.39212157     0.84500
C171        C  0.21243243  0.82525110  0.45388138     1.06070
H172        H  0.20406835  0.68359158  0.38019325     0.37880
O173        O  0.18991974  0.67128171  0.39803866    -1.10380
O174        O  0.20987825  0.58987933  0.44072752    -0.67040
Ni175      Ni  0.25049627  0.63842104  0.41649686     1.26350
O176        O  0.22121131  0.77291228  0.39321075    -0.67260
O177        O  0.25831940  0.58199858  0.38932067    -0.79560
C178        C  0.35731187  0.63685900  0.43445020     0.83890
O179        O  0.31489826  0.60910347  0.43478969    -0.66730
Ni180      Ni  0.13052503  0.63051178  0.38765830     1.27450
Ni181      Ni  0.17952454  0.73395552  0.42091284     1.26060
H182        H  0.22711367  0.68695311  0.45911574     0.38430
O183        O  0.84621721  0.67687626  0.38569095    -0.81520
O184        O  0.61874305  0.63006545  0.41891781    -0.66210
O185        O  0.73573635  0.68502225  0.37805412    -1.12810
C186        C  0.71684602  0.84550434  0.42998671     1.05370
O187        O  0.57277922  0.71009389  0.42364922    -0.79420
O188        O  0.61778863  0.78104077  0.38754580    -0.67000
Ni189      Ni  0.79330310  0.63767874  0.36525669     1.34870
C190        C  0.65419995  0.79529401  0.37006402     0.84100
O191        O  0.66724042  0.59919492  0.37154095    -0.79960
O192        O  0.74151075  0.59933596  0.34331845    -0.90230
C193        C  0.57489053  0.65822849  0.42291101     0.83670
O194        O  0.79142478  0.57944581  0.39313882    -0.68440
O195        O  0.66771990  0.82982172  0.43091511    -0.87720
C196        C  0.76027583  0.57170724  0.41422437     0.84500
C197        C  0.69289656  0.58470013  0.34911693     1.06070
H198        H  0.70078098  0.70538811  0.44083278     0.37880
O199        O  0.68800673  0.71802652  0.42253850    -1.10380
O200        O  0.70574159  0.79020588  0.37486500    -0.67040
Ni201      Ni  0.74852394  0.74596874  0.40159290     1.26350
O202        O  0.72372257  0.60780313  0.42147004    -0.67260
O203        O  0.75696316  0.81181273  0.42384987    -0.79560
C204        C  0.85287531  0.72792710  0.38191119     0.83890
O205        O  0.81272848  0.76315664  0.38151112    -0.66730
Ni206      Ni  0.62482803  0.76663080  0.42680266     1.27450
Ni207      Ni  0.67790159  0.65656107  0.39817696     1.26060
H208        H  0.71921417  0.69895658  0.36084058     0.38430
O209        O  0.63185335  0.26053369  0.89317289    -0.81520
O210        O  0.87075635  0.29222101  0.92055466    -0.66210
O211        O  0.74363123  0.24900096  0.88454348    -1.12810
C212        C  0.74768148  0.09055835  0.93965483     1.05370
O213        O  0.90017801  0.21328532  0.94089922    -0.79420
O214        O  0.85891127  0.15011748  0.89868508    -0.67000
Ni215      Ni  0.68711426  0.30001709  0.87311942     1.34870
C216        C  0.82243936  0.13670026  0.88115158     0.84100
O217        O  0.82204734  0.32265055  0.87226333    -0.79960
O218        O  0.73978194  0.33909385  0.85110026    -0.90230
C219        C  0.90543613  0.26346438  0.93477387     0.83670
O220        O  0.69127995  0.35387051  0.90214254    -0.68440
O221        O  0.79915914  0.09729653  0.93826900    -0.87720
C222        C  0.72902636  0.36363756  0.91965945     0.84500
C223        C  0.79198023  0.34464674  0.85259225     1.06070
H224        H  0.77652634  0.23224210  0.94781328     0.37880
O225        O  0.78900833  0.21570683  0.93050234    -1.10380
O226        O  0.77078905  0.14310287  0.88570367    -0.67040
Ni227      Ni  0.72775221  0.19124148  0.90992002     1.26350
O228        O  0.77115978  0.33111108  0.92345000    -0.67260
O229        O  0.71279229  0.13004117  0.93468749    -0.79560
C230        C  0.62535863  0.20935752  0.89046129     0.83890
O231        O  0.66556136  0.17491084  0.88909338    -0.66730
Ni232      Ni  0.84562376  0.15959993  0.93796988     1.27450
Ni233      Ni  0.80644494  0.27165919  0.90239126     1.26060
H234        H  0.75617845  0.23315545  0.86711735     0.38430
O235        O  0.12675403  0.21272194  0.93998033    -0.81520
O236        O  0.36491261  0.15081180  0.89230828    -0.66210
O237        O  0.24009203  0.20046873  0.93452967    -1.12810
C238        C  0.23923226  0.33511901  0.86056112     1.05370
O239        O  0.39297000  0.23456479  0.89860477    -0.79420
O240        O  0.33511409  0.33457029  0.90244910    -0.67000
Ni241      Ni  0.18064111  0.15300221  0.93905380     1.34870
C242        C  0.30474572  0.34446216  0.92364791     0.84100
O243        O  0.31450267  0.10758695  0.93632619    -0.79960
O244        O  0.22665306  0.08628209  0.93987597    -0.90230
C245        C  0.40313463  0.18399515  0.89416177     0.83670
O246        O  0.17056339  0.14754866  0.89952284    -0.68440
O247        O  0.28743789  0.31619112  0.85397839    -0.87720
C248        C  0.20631285  0.12746281  0.88262417     0.84500
C249        C  0.27797899  0.07296811  0.94066677     1.06070
H250        H  0.26731623  0.21922362  0.87198624     0.37880
O251        O  0.28361535  0.23213250  0.88898027    -1.10380
O252        O  0.27002354  0.31049949  0.93233106    -0.67040
Ni253      Ni  0.22591088  0.26331386  0.90988748     1.26350
O254        O  0.25806393  0.12734933  0.88746524    -0.67260
O255        O  0.21351730  0.32192722  0.88300212    -0.79560
C256        C  0.12501555  0.26461902  0.93837270     0.83890
O257        O  0.16561843  0.29176650  0.93103601    -0.66730
Ni258      Ni  0.34009903  0.27558689  0.87637775     1.27450
Ni259      Ni  0.30057965  0.17103645  0.91283388     1.26060
H260        H  0.25293994  0.21161348  0.95266408     0.38430
O261        O  0.12171240  0.71276726  0.94596618    -0.81520
O262        O  0.35229508  0.75724947  0.00093207    -0.66210
O263        O  0.23358198  0.71538168  0.95573077    -1.12810
C264        C  0.22880162  0.58105642  0.02979882     1.05370
O265        O  0.38590745  0.67199582  0.99681363    -0.79420
O266        O  0.33094271  0.57565100  0.98891816    -0.67000
Ni267      Ni  0.17378246  0.76844975  0.95047308     1.34870
C268        C  0.30023290  0.56683748  0.96803986     0.84100
O269        O  0.30536984  0.80297984  0.95536534    -0.79960
O270        O  0.21763935  0.83232867  0.95298082    -0.90230
C271        C  0.39222026  0.72210908  0.00228494     0.83670
O272        O  0.15955970  0.77006966  0.99002309    -0.68440
O273        O  0.27746574  0.59378757  0.03647883    -0.87720
C274        C  0.19335494  0.78480077  0.00852668     0.84500
C275        C  0.26878779  0.84142839  0.95231390     1.06070
H276        H  0.25747534  0.69404688  0.01905714     0.37880
O277        O  0.27479073  0.68022494  0.00218026    -1.10380
O278        O  0.26321332  0.60196014  0.95935831    -0.67040
Ni279      Ni  0.21802966  0.65452041  0.98062629     1.26350
O280        O  0.24512627  0.78504203  0.00359727    -0.67260
O281        O  0.20318278  0.59850807  0.00770556    -0.79560
C282        C  0.11994459  0.66116834  0.94882519     0.83890
O283        O  0.15893831  0.63114548  0.95898581    -0.66730
Ni284      Ni  0.33118680  0.63250763  0.01617622     1.27450
Ni285      Ni  0.29154289  0.74026868  0.97862756     1.26060
H286        H  0.24782599  0.70282564  0.93788490     0.38430
O287        O  0.63063465  0.68769369  0.99544239    -0.81520
O288        O  0.86455357  0.64203945  0.97383573    -0.66210
O289        O  0.73561650  0.69265467  0.00970872    -1.12810
C290        C  0.74413895  0.85899390  0.96251318     1.05370
O291        O  0.89818732  0.72284904  0.96290284    -0.79420
O292        O  0.84728323  0.78051339  0.00593540    -0.67000
Ni293      Ni  0.68002050  0.64505788  0.01873864     1.34870
C294        C  0.80842883  0.79734194  0.02216154     0.84100
O295        O  0.81187482  0.60882679  0.02024513    -0.79960
O296        O  0.73013428  0.60448675  0.04298350    -0.90230
C297        C  0.90226853  0.67091678  0.96451820     0.83670
O298        O  0.69115333  0.58916972  0.99111741    -0.68440
O299        O  0.79506761  0.84698773  0.96664716    -0.87720
C300        C  0.72721146  0.58081002  0.97212488     0.84500
C301        C  0.78215729  0.59402635  0.04112083     1.06070
H302        H  0.77623721  0.71825023  0.94828020     0.37880
O303        O  0.78531320  0.72952970  0.96700207    -1.10380
O304        O  0.75774296  0.79723264  0.01477582    -0.67040
Ni305      Ni  0.72043138  0.75581084  0.98627313     1.26350
O306        O  0.76412163  0.61528382  0.96730248    -0.67260
O307        O  0.70865190  0.82219740  0.96356100    -0.79560
C308        C  0.61706938  0.73580775  0.00350515     0.83890
O309        O  0.65231253  0.77236933  0.00452094    -0.66730
Ni310      Ni  0.84241924  0.78078402  0.96587857     1.27450
Ni311      Ni  0.79924131  0.66622350  0.99208275     1.26060
H312        H  0.74767825  0.70454885  0.02776284     0.38430
O313        O  0.48735704  0.57112274  0.20281691    -0.81520
O314        O  0.54115266  0.33074592  0.25023338    -0.66210
O315        O  0.49294557  0.45951843  0.20952302    -1.12810
C316        C  0.36409636  0.46163872  0.28613743     1.05370
O317        O  0.45490052  0.31145758  0.24323486    -0.79420
O318        O  0.35648836  0.37070964  0.24208518    -0.67000
Ni319      Ni  0.54444110  0.51486511  0.20378412     1.34870
C320        C  0.34603237  0.40345657  0.22180893     0.84100
O321        O  0.58208950  0.38056003  0.20537185    -0.79960
O322        O  0.60885874  0.46586692  0.20218045    -0.90230
C323        C  0.50342566  0.29671549  0.25085197     0.83670
O324        O  0.55381346  0.52344050  0.24327094    -0.68440
O325        O  0.38017808  0.41199650  0.29096076    -0.87720
C326        C  0.57286366  0.48626944  0.26003855     0.84500
C327        C  0.61867131  0.41466580  0.20038333     1.06070
H328        H  0.47877090  0.42892143  0.27239373     0.37880
O329        O  0.46315671  0.41560374  0.25532251    -1.10380
O330        O  0.38034740  0.43812814  0.21356970    -0.67040
Ni331      Ni  0.43321598  0.47629794  0.23581678     1.26350
O332        O  0.57038404  0.43538260  0.25491136    -0.67260
O333        O  0.37749874  0.48963718  0.26431040    -0.79560
C334        C  0.43539521  0.57664511  0.20569938     0.83890
O335        O  0.40625348  0.53994230  0.21610047    -0.66730
Ni336      Ni  0.41721234  0.36102738  0.26728449     1.27450
Ni337      Ni  0.52164113  0.39670675  0.23019362     1.26060
H338        H  0.47856351  0.44853272  0.19167336     0.38430
O339        O  0.42958530  0.06534002  0.25505960    -0.81520
O340        O  0.40684523  0.82959352  0.22545913    -0.66210
O341        O  0.44578210  0.95594089  0.26155353    -1.12810
C342        C  0.60651796  0.95825613  0.20869330     1.05370
O343        O  0.48696543  0.80355736  0.20564549    -0.79420
O344        O  0.54670301  0.84560588  0.24904875    -0.67000
Ni345      Ni  0.39279078  0.00813870  0.27448487     1.34870
C346        C  0.55906349  0.88110981  0.26701396     0.84100
O347        O  0.37642152  0.87399413  0.27358720    -0.79960
O348        O  0.35729002  0.95266599  0.29634247    -0.90230
C349        C  0.43685156  0.79602437  0.21186064     0.83670
O350        O  0.33769181  0.00332995  0.24549101    -0.68440
O351        O  0.60103629  0.90705413  0.21060970    -0.87720
C352        C  0.32957944  0.96710843  0.22726594     0.84500
C353        C  0.35543292  0.90075197  0.29419709     1.06070
H354        H  0.46410724  0.92589844  0.19846873     0.37880
O355        O  0.48110446  0.91377794  0.21596663    -1.10380
O356        O  0.55283917  0.93241155  0.26211772    -0.67040
Ni357      Ni  0.50375657  0.97473967  0.23688067     1.26350
O358        O  0.36430667  0.92747281  0.22265336    -0.67260
O359        O  0.56557188  0.99180094  0.21274624    -0.79560
C360        C  0.48036233  0.07434763  0.25954528     0.83890
O361        O  0.51792633  0.03680337  0.25788422    -0.66730
Ni362      Ni  0.53935443  0.85934908  0.20955671     1.27450
Ni363      Ni  0.42567747  0.89341238  0.24365153     1.26060
H364        H  0.46235360  0.94299057  0.27875942     0.38430
O365        O  0.97116339  0.56694657  0.19711408    -0.81520
O366        O  0.93383018  0.33488362  0.14452425    -0.66210
O367        O  0.97432904  0.45595460  0.18761987    -1.12810
C368        C  0.10039867  0.46738718  0.11038788     1.05370
O369        O  0.02170926  0.30753925  0.14763648    -0.79420
O370        O  0.11595682  0.36717482  0.15285139    -0.67000
Ni371      Ni  0.91827584  0.51183908  0.19406568     1.34870
C372        C  0.12571871  0.40005935  0.17239919     0.84100
O373        O  0.89058936  0.37928867  0.19056049    -0.79960
O374        O  0.85696803  0.46474471  0.19306345    -0.90230
C375        C  0.97186154  0.29806471  0.14186326     0.83670
O376        O  0.91090960  0.52548694  0.15456907    -0.68440
O377        O  0.08949906  0.41827141  0.10473657    -0.87720
C378        C  0.89454578  0.49123278  0.13686488     0.84500
C379        C  0.85039282  0.41367129  0.19371953     1.06070
H380        H  0.99029905  0.43318504  0.12432287     0.37880
O381        O  0.00669182  0.41672792  0.14097203    -1.10380
O382        O  0.08904077  0.43459393  0.18137525    -0.67040
Ni383      Ni  0.03113907  0.47530545  0.16098236     1.26350
O384        O  0.89904612  0.43978741  0.14162709    -0.67260
O385        O  0.08356920  0.49261876  0.13237261    -0.79560
C386        C  0.02226250  0.57233082  0.19278013     0.83890
O387        O  0.05327386  0.53624343  0.18126980    -0.66730
Ni388      Ni  0.05619302  0.36325768  0.12666318     1.27450
Ni389      Ni  0.94998448  0.39656835  0.16589119     1.26060
H390        H  0.99024867  0.44265245  0.20516837     0.38430
O391        O  0.01476052  0.05875154  0.13762721    -0.81520
O392        O  0.05015041  0.83176711  0.17776588    -0.66210
O393        O  0.00208510  0.95120529  0.13273533    -1.12810
C394        C  0.83797018  0.96114593  0.18426260     1.05370
O395        O  0.96672500  0.79989624  0.18479585    -0.79420
O396        O  0.90077299  0.84894660  0.14444437    -0.67000
Ni397      Ni  0.05199978  0.00039086  0.11832685     1.34870
C398        C  0.88842566  0.88535747  0.12585124     0.84100
O399        O  0.08441621  0.87041724  0.12824179    -0.79960
O400        O  0.08902887  0.94232611  0.09818883    -0.90230
C401        C  0.01913398  0.79408193  0.18475247     0.83670
O402        O  0.10902582  0.99425269  0.14623742    -0.68440
O403        O  0.84794798  0.90975122  0.18502052    -0.87720
C404        C  0.11605902  0.96584089  0.16855505     0.84500
C405        C  0.10009048  0.89244778  0.10519035     1.06070
H406        H  0.97703738  0.92575772  0.19645113     0.37880
O407        O  0.96466790  0.91337221  0.17846032    -1.10380
O408        O  0.89477449  0.93609805  0.12959051    -0.67040
Ni409      Ni  0.94049976  0.97480566  0.15538287     1.26350
O410        O  0.08027182  0.93214799  0.17659635    -0.67260
O411        O  0.87506383  0.99433973  0.17749583    -0.79560
C412        C  0.96469552  0.07344150  0.13235221     0.83890
O413        O  0.92670414  0.03945749  0.13327868    -0.66730
Ni414      Ni  0.91128451  0.85883817  0.18378983     1.27450
Ni415      Ni  0.02746332  0.89212045  0.15486704     1.26060
H416        H  0.98802135  0.93509913  0.11606951     0.38430
C417        C  0.91471447  0.21754021  0.14481028    -0.26950
C418        C  0.95905808  0.24380091  0.13262528    -0.15020
C419        C  0.99541860  0.21556437  0.11433371     0.35610
C420        C  0.99146273  0.15944775  0.11166647    -0.26400
C421        C  0.95245380  0.13154538  0.12725265    -0.15640
C422        C  0.91135468  0.16081145  0.14254864     0.36690
N423        N  0.86959748  0.13265761  0.15755954    -0.89890
H424        H  0.88611298  0.24019482  0.15828114     0.17810
H425        H  0.02197525  0.13664163  0.09931841     0.17800
N426        N  0.03809147  0.24356774  0.09990112    -0.88920
H427        H  0.84211929  0.16058458  0.16729136     0.35180
H428        H  0.88905572  0.10961005  0.17368121     0.40270
H429        H  0.01885145  0.27203185  0.08607215     0.39890
H430        H  0.06193707  0.21648002  0.08759898     0.34780
C431        C  0.07100700  0.65023016  0.17495848    -0.26950
C432        C  0.04378830  0.62621141  0.19758156    -0.15020
C433        C  0.02482453  0.65910408  0.21999736     0.35610
C434        C  0.02510032  0.71572871  0.21704531    -0.26400
C435        C  0.04320100  0.73983257  0.19200749    -0.15640
C436        C  0.07050160  0.70685376  0.17158171     0.36690
N437        N  0.09201383  0.72812237  0.14569490    -0.89890
H438        H  0.08612221  0.62525711  0.15777725     0.17810
H439        H  0.00567391  0.74093514  0.23312043     0.17800
N440        N  0.00290065  0.63635165  0.24531039    -0.88920
H441        H  0.13410392  0.71692646  0.14503238     0.35180
H442        H  0.08932365  0.77049707  0.14479227     0.40270
H443        H  0.03226339  0.60796502  0.25363168     0.39890
H444        H  0.96711078  0.61629070  0.24079497     0.34780
C445        C  0.26102027  0.00812684  0.19196667    -0.26950
C446        C  0.27499371  0.96821792  0.21244618    -0.15020
C447        C  0.23542160  0.92994582  0.21975661     0.35610
C448        C  0.18346680  0.93169238  0.20616241    -0.26400
C449        C  0.16960888  0.97027137  0.18475325    -0.15640
C450        C  0.20966941  0.00909881  0.17766878     0.36690
N451        N  0.19885773  0.04927735  0.15580047    -0.89890
H452        H  0.29101079  0.03785177  0.18652688     0.17810
H453        H  0.15413923  0.90154297  0.21190999     0.17800
N454        N  0.24777772  0.88986092  0.24150329    -0.88920
H455        H  0.22975391  0.07753281  0.15519262     0.35180
H456        H  0.20149174  0.02899748  0.13665709     0.40270
H457        H  0.27962834  0.86353694  0.23422875     0.39890
H458        H  0.21399705  0.86584525  0.24514701     0.34780
C459        C  0.68227960  0.98333680  0.17549795    -0.26950
C460        C  0.66383690  0.97701132  0.20332499    -0.15020
C461        C  0.70403052  0.97633838  0.22508869     0.35610
C462        C  0.76073366  0.97707685  0.21834963    -0.26400
C463        C  0.77943030  0.98001610  0.19045241    -0.15640
C464        C  0.73905213  0.98521055  0.16881956     0.36690
N465        N  0.75411683  0.98941395  0.13969468    -0.89890
H466        H  0.65251464  0.98350524  0.15854511     0.17810
H467        H  0.79074126  0.97203901  0.23514969     0.17800
N468        N  0.68926594  0.97176761  0.25424802    -0.88920
H469        H  0.74398648  0.95323424  0.13003262     0.35180
H470        H  0.79647995  0.99312654  0.13721592     0.40270
H471        H  0.64660673  0.97410733  0.25685492     0.39890
H472        H  0.70359430  0.00588859  0.26434534     0.34780
C473        C  0.70813361  0.37155932  0.21643816    -0.26950
C474        C  0.67638094  0.39649149  0.19464868    -0.15020
C475        C  0.70308228  0.41742053  0.17088702     0.35610
C476        C  0.76084211  0.41676690  0.17023544    -0.26400
C477        C  0.79273526  0.39681783  0.19312856    -0.15640
C478        C  0.76620210  0.37200559  0.21614679     0.36690
N479        N  0.79614864  0.35016595  0.24014108    -0.89890
H480        H  0.68766171  0.35627602  0.23499269     0.17810
H481        H  0.78108184  0.43578110  0.15256650     0.17800
N482        N  0.67116474  0.44287251  0.14841834    -0.88920
H483        H  0.78511028  0.37434377  0.25734271     0.35180
H484        H  0.83862556  0.35257703  0.23742744     0.40270
H485        H  0.64830824  0.41271046  0.13932092     0.39890
H486        H  0.69698816  0.45744332  0.13269921     0.34780
C487        C  0.28390576  0.39955376  0.17978609    -0.26950
C488        C  0.29008132  0.40243997  0.20889004    -0.15020
C489        C  0.24205914  0.40570545  0.22590539     0.35610
C490        C  0.18937685  0.40448823  0.21347276    -0.26400
C491        C  0.18289299  0.39962847  0.18436414    -0.15640
C492        C  0.23142001  0.39878250  0.16718978     0.36690
N493        N  0.22992457  0.39909023  0.13696629    -0.89890
H494        H  0.32032185  0.39835045  0.16657981     0.17810
H495        H  0.15299226  0.40707333  0.22667758     0.17800
N496        N  0.24674635  0.41256980  0.25574413    -0.88920
H497        H  0.24905652  0.43403496  0.12986110     0.35180
H498        H  0.19007803  0.40305579  0.12910733     0.40270
H499        H  0.26283900  0.37576343  0.26440360     0.39890
H500        H  0.20782584  0.41936027  0.26481569     0.34780
C501        C  0.47073109  0.22134377  0.27850191    -0.26950
C502        C  0.51231166  0.24109669  0.26122856    -0.15020
C503        C  0.55125534  0.20492397  0.24868593     0.35610
C504        C  0.54324093  0.14880957  0.25074581    -0.26400
C505        C  0.49626809  0.12990973  0.26434405    -0.15640
C506        C  0.46186398  0.16575636  0.27996176     0.36690
N507        N  0.41641168  0.14584290  0.29586654    -0.89890
H508        H  0.44179091  0.24985805  0.28862582     0.17810
H509        H  0.57049807  0.12047496  0.23947199     0.17800
N510        N  0.59559369  0.22524968  0.23212118    -0.88920
H511        H  0.39458412  0.17798531  0.30574618     0.35180
H512        H  0.43287420  0.12023777  0.31183331     0.40270
H513        H  0.57835791  0.24558121  0.21452046     0.39890
H514        H  0.62070162  0.19286936  0.22454464     0.34780
C515        C  0.38246052  0.65731669  0.22166046    -0.26950
C516        C  0.41059115  0.63105853  0.19961794    -0.15020
C517        C  0.43046590  0.66216841  0.17692836     0.35610
C518        C  0.43241293  0.71870632  0.17971308    -0.26400
C519        C  0.41422201  0.74377625  0.20448109    -0.15640
C520        C  0.38417388  0.71399521  0.22444052     0.36690
N521        N  0.36154834  0.74002462  0.24903862    -0.89890
H522        H  0.36593222  0.63318745  0.23868172     0.17810
H523        H  0.45292966  0.74238196  0.16377177     0.17800
N524        N  0.45182113  0.63601925  0.15206798    -0.88920
H525        H  0.34409484  0.71145119  0.26246085     0.35180
H526        H  0.32915294  0.76681704  0.24242759     0.40270
H527        H  0.48980579  0.61635760  0.15691104     0.39890
H528        H  0.45999379  0.66526365  0.13659206     0.34780
C529        C  0.81838095  0.83601302  0.09982282    -0.26950
C530        C  0.86482507  0.86767772  0.09905132    -0.15020
C531        C  0.88932191  0.87948305  0.07297403     0.35610
C532        C  0.86949643  0.85563418  0.04856654    -0.26400
C533        C  0.82399977  0.82218830  0.04921873    -0.15640
C534        C  0.79662387  0.81418763  0.07534594     0.36690
N535        N  0.74745749  0.78432535  0.07847278    -0.89890
H536        H  0.79861814  0.82811144  0.11980902     0.17810
H537        H  0.88960558  0.86364810  0.02869492     0.17800
N538        N  0.93537331  0.91402387  0.07138742    -0.88920
H539        H  0.75658546  0.75110135  0.09192269     0.35180
H540        H  0.73411842  0.76858881  0.05974140     0.40270
H541        H  0.92089151  0.95351100  0.07644834     0.39890
H542        H  0.95028739  0.91637779  0.05082104     0.34780
C543        C  0.84384312  0.51952167  0.06124763    -0.26950
C544        C  0.80962435  0.56633138  0.06543466    -0.15020
C545        C  0.80296466  0.58681868  0.09299654     0.35610
C546        C  0.83003092  0.55958201  0.11534233    -0.26400
C547        C  0.86505884  0.51316439  0.11141190    -0.15640
C548        C  0.87099093  0.49192670  0.08377900     0.36690
N549        N  0.90481085  0.44410469  0.07714753    -0.89890
H550        H  0.84920793  0.50386976  0.04019839     0.17810
H551        H  0.82426396  0.57593922  0.13623250     0.17800
N552        N  0.77087476  0.63606128  0.09932015    -0.88920
H553        H  0.87908728  0.41553728  0.06872253     0.35180
H554        H  0.92269259  0.42548782  0.09478441     0.40270
H555        H  0.75644704  0.65668670  0.08133798     0.39890
H556        H  0.79724145  0.66270874  0.10886568     0.34780
C557        C  0.20335986  0.84271594  0.05075805    -0.26950
C558        C  0.17217867  0.80551469  0.03599761    -0.15020
C559        C  0.12095680  0.79076930  0.04755139     0.35610
C560        C  0.10068940  0.81644003  0.07179125    -0.26400
C561        C  0.12928957  0.85785817  0.08441152    -0.15640
C562        C  0.18164117  0.87035231  0.07427046     0.36690
N563        N  0.21176293  0.91202763  0.08745534    -0.89890
H564        H  0.24394860  0.85212972  0.04330221     0.17810
H565        H  0.06052630  0.80639284  0.07978025     0.17800
N566        N  0.08855000  0.74991756  0.03539053    -0.88920
H567        H  0.24946019  0.91677918  0.07728904     0.35180
H568        H  0.22095599  0.89870828  0.10796215     0.40270
H569        H  0.11325460  0.71408476  0.03321532     0.39890
H570        H  0.07443304  0.76357979  0.01567762     0.34780
C571        C  0.12869910  0.48446956  0.06152356    -0.26950
C572        C  0.13451679  0.49597564  0.09011605    -0.15020
C573        C  0.17462878  0.53179328  0.09877293     0.35610
C574        C  0.20649269  0.55707143  0.07841116    -0.26400
C575        C  0.19944577  0.54697046  0.04973727    -0.15640
C576        C  0.16160701  0.50835932  0.04119674     0.36690
N577        N  0.15611341  0.49149793  0.01252279    -0.89890
H578        H  0.09874371  0.45592090  0.05488259     0.17810
H579        H  0.23585662  0.58626430  0.08497071     0.17800
N580        N  0.18401788  0.54130897  0.12807223    -0.88920
H581        H  0.16191251  0.44895738  0.01230171     0.35180
H582        H  0.18781281  0.50539495  0.99994081     0.40270
H583        H  0.15061068  0.56545068  0.13539664     0.39890
H584        H  0.21871354  0.56434543  0.13073633     0.34780
C585        C  0.47814936  0.70539327  0.02780455    -0.26950
C586        C  0.44701439  0.73880136  0.00912873    -0.15020
C587        C  0.47120185  0.78185137  0.99439667     0.35610
C588        C  0.52845400  0.78595103  0.99596235    -0.26400
C589        C  0.56019970  0.74712559  0.01150318    -0.15640
C590        C  0.53500790  0.70930004  0.02921277     0.36690
N591        N  0.56800972  0.67200889  0.04660633    -0.89890
H592        H  0.45859045  0.67354399  0.03966353     0.17810
H593        H  0.54866050  0.81508660  0.98260513     0.17800
N594        N  0.43860240  0.81775414  0.97611688    -0.88920
H595        H  0.54301475  0.64594511  0.05792457     0.35180
H596        H  0.58804524  0.69515939  0.06137073     0.40270
H597        H  0.42458646  0.79451653  0.95958902     0.39890
H598        H  0.46297261  0.84734985  0.96708209     0.34780
C599        C  0.97436408  0.66320665  0.92902302    -0.26950
C600        C  0.95404224  0.64452999  0.95484411    -0.15020
C601        C  0.98922830  0.61256505  0.97302957     0.35610
C602        C  0.04549613  0.60817352  0.96685662    -0.26400
C603        C  0.06683818  0.63722107  0.94404591    -0.15640
C604        C  0.03070658  0.65970450  0.92331653     0.36690
N605        N  0.05038961  0.68433662  0.89786073    -0.89890
H606        H  0.94709848  0.68588632  0.91453021     0.17810
H607        H  0.07322653  0.58941206  0.98246330     0.17800
N608        N  0.97132124  0.58927803  0.99921183    -0.88920
H609        H  0.03296925  0.66430172  0.88105798     0.35180
H610        H  0.09299163  0.67709570  0.89593009     0.40270
H611        H  0.92875899  0.59262001  0.00175222     0.39890
H612        H  0.98869051  0.61085190  0.01549216     0.34780
C613        C  0.30302640  0.46567952  0.97454964    -0.26950
C614        C  0.30457838  0.51070917  0.95573705    -0.15020
C615        C  0.30736781  0.49998713  0.92663993     0.35610
C616        C  0.30887067  0.44546202  0.91746220    -0.26400
C617        C  0.30683263  0.40031613  0.93623830    -0.15640
C618        C  0.30410904  0.41109772  0.96539668     0.36690
N619        N  0.30321374  0.36839064  0.98642748    -0.89890
H620        H  0.30020945  0.47302610  0.99691381     0.17810
H621        H  0.31064776  0.43838356  0.89505465     0.17800
N622        N  0.31038763  0.54270969  0.90576498    -0.88920
H623        H  0.33755345  0.37213506  0.99937114     0.35180
H624        H  0.30824448  0.32982413  0.97764624     0.40270
H625        H  0.31283993  0.58101917  0.91475205     0.39890
H626        H  0.27399112  0.54339968  0.89401156     0.34780
C627        C  0.30732945  0.92195810  0.92696757    -0.26950
C628        C  0.28405691  0.89946278  0.95123258    -0.15020
C629        C  0.26868185  0.93443277  0.97351614     0.35610
C630        C  0.27404137  0.99097770  0.97060655    -0.26400
C631        C  0.29296986  0.01420692  0.94561888    -0.15640
C632        C  0.31158785  0.97897007  0.92371508     0.36690
N633        N  0.33107237  0.99934761  0.89722516    -0.89890
H634        H  0.31892622  0.89551861  0.90969666     0.17810
H635        H  0.25907257  0.01764349  0.98719282     0.17800
N636        N  0.24525720  0.91268891  0.99872765    -0.88920
H637        H  0.37175290  0.98418292  0.89473738     0.35180
H638        H  0.33250874  0.04174246  0.89701877     0.40270
H639        H  0.20588302  0.90036392  0.99377013     0.39890
H640        H  0.23955011  0.94310166  0.01375601     0.34780
C641        C  0.77351189  0.44988222  0.93219028    -0.26950
C642        C  0.72693732  0.41793722  0.93427828    -0.15020
C643        C  0.67932956  0.44138620  0.94763996     0.35610
C644        C  0.67998983  0.49492256  0.95842273    -0.26400
C645        C  0.72678752  0.52709603  0.95646105    -0.15640
C646        C  0.77409365  0.50326184  0.94284531     0.36690
N647        N  0.82420494  0.53129770  0.94000609    -0.89890
H648        H  0.81013389  0.43335782  0.92167115     0.17810
H649        H  0.64341728  0.51099508  0.96910538     0.17800
N650        N  0.63045242  0.41154546  0.95199647    -0.88920
H651        H  0.83856790  0.54015801  0.96002406     0.35180
H652        H  0.81610387  0.56755110  0.92859086     0.40270
H653        H  0.63576439  0.37114938  0.94558461     0.39890
H654        H  0.59903703  0.43028074  0.93971727     0.34780
C655        C  0.73879781  0.01291207  0.97359164    -0.26950
C656        C  0.73021681  0.03375642  0.94625098    -0.15020
C657        C  0.71677581  0.99645018  0.92495631     0.35610
C658        C  0.71622249  0.93972669  0.93125810    -0.26400
C659        C  0.72806555  0.91868740  0.95835911    -0.15640
C660        C  0.73716126  0.95666124  0.97996943     0.36690
N661        N  0.74630413  0.93961497  0.00865166    -0.89890
H662        H  0.74924117  0.04051023  0.99011743     0.17810
H663        H  0.70994267  0.91159844  0.91435856     0.17800
N664        N  0.70707886  0.01388881  0.89634538    -0.88920
H665        H  0.78788703  0.94424990  0.01329025     0.35180
H666        H  0.73816807  0.89865147  0.01174959     0.40270
H667        H  0.70792306  0.05621119  0.89412494     0.39890
H668        H  0.66703356  0.00386884  0.89111236     0.34780
C669        C  0.48942530  0.16782283  0.91803459    -0.26950
C670        C  0.46029494  0.16549892  0.89280152    -0.15020
C671        C  0.48811743  0.16752506  0.86684048     0.35610
C672        C  0.54368678  0.17919464  0.86671657    -0.26400
C673        C  0.57081578  0.18871351  0.89191548    -0.15640
C674        C  0.54470154  0.18012587  0.91796789     0.36690
N675        N  0.57188377  0.18606078  0.94452144    -0.89890
H676        H  0.46759491  0.16632402  0.93790127     0.17810
H677        H  0.56480000  0.18423239  0.84683463     0.17800
N678        N  0.46017494  0.16314593  0.84040765    -0.88920
H679        H  0.55278929  0.21958631  0.95455162     0.35180
H680        H  0.61334266  0.19446351  0.94208726     0.40270
H681        H  0.41912453  0.15355470  0.84339729     0.39890
H682        H  0.47891592  0.13002818  0.82989514     0.34780
C683        C  0.98423236  0.31541285  0.92082763    -0.26950
C684        C  0.95714565  0.28767327  0.94225660    -0.15020
C685        C  0.98579938  0.27225779  0.96713417     0.35610
C686        C  0.04305788  0.27488653  0.96748513    -0.26400
C687        C  0.07141732  0.29230733  0.94355814    -0.15640
C688        C  0.04143020  0.31749560  0.92095068     0.36690
N689        N  0.06723345  0.33871898  0.89620271    -0.89890
H690        H  0.96199276  0.32893313  0.90205491     0.17810
H691        H  0.06588008  0.25681150  0.98515148     0.17800
N692        N  0.95879938  0.24981805  0.99128049    -0.88920
H693        H  0.06228050  0.31108527  0.87999267     0.35180
H694        H  0.10924735  0.34256524  0.89911467     0.40270
H695        H  0.91599543  0.25330654  0.98894883     0.39890
H696        H  0.96749770  0.27418248  0.00839511     0.34780
C697        C  0.60505773  0.55556977  0.32831387    -0.26950
C698        C  0.66308697  0.55199660  0.32826277    -0.15020
C699        C  0.69048181  0.52038751  0.30731569     0.35610
C700        C  0.65929738  0.49586622  0.28643363    -0.26400
C701        C  0.60168181  0.50333529  0.28548222    -0.15640
C702        C  0.57404601  0.53234630  0.30717015     0.36690
N703        N  0.51492742  0.54011870  0.30819505    -0.89890
H704        H  0.58337489  0.57865952  0.34436046     0.17810
H705        H  0.68031669  0.47333544  0.26983154     0.17800
N706        N  0.74961974  0.51341315  0.30701334    -0.88920
H707        H  0.50147550  0.52141679  0.32668354     0.35180
H708        H  0.49595924  0.52065731  0.29173338     0.40270
H709        H  0.76506579  0.55009014  0.29974258     0.39890
H710        H  0.76234817  0.48406310  0.29236163     0.34780
C711        C  0.59467722  0.86264976  0.34451605    -0.26950
C712        C  0.63506885  0.82023380  0.34340849    -0.15020
C713        C  0.65294257  0.80007996  0.31719993     0.35610
C714        C  0.62702633  0.82070290  0.29261233    -0.26400
C715        C  0.58498715  0.86204492  0.29372028    -0.15640
C716        C  0.56974013  0.88399045  0.32016996     0.36690
N717        N  0.52657919  0.92505416  0.32357153    -0.89890
H718        H  0.58118591  0.87838672  0.36468158     0.17810
H719        H  0.63981161  0.80456709  0.27244060     0.17800
N720        N  0.69554931  0.75746227  0.31566352    -0.88920
H721        H  0.48955374  0.90859384  0.31775209     0.35180
H722        H  0.53485096  0.95943588  0.31135786     0.40270
H723        H  0.73231525  0.77377939  0.32220173     0.39890
H724        H  0.70186166  0.74556487  0.29487172     0.34780
C725        C  0.29719547  0.49819345  0.35514306    -0.26950
C726        C  0.25656632  0.53724581  0.34641402    -0.15020
C727        C  0.24975276  0.55006292  0.31755529     0.35610
C728        C  0.28570585  0.52496898  0.29813230    -0.26400
C729        C  0.32755871  0.48734898  0.30705474    -0.15640
C730        C  0.33327118  0.47348874  0.33584290     0.36690
N731        N  0.37694095  0.43604916  0.34551766    -0.89890
H732        H  0.30236449  0.48872881  0.37733352     0.17810
H733        H  0.28110258  0.53479965  0.27595900     0.17800
N734        N  0.20856457  0.59043672  0.30820464    -0.88920
H735        H  0.37485346  0.43010493  0.36727980     0.35180
H736        H  0.41431506  0.45412081  0.34143162     0.40270
H737        H  0.17005521  0.57405248  0.31137529     0.39890
H738        H  0.21187717  0.59758033  0.28657479     0.34780
C739        C  0.33396326  0.79354530  0.35153575    -0.26950
C740        C  0.28919852  0.81693575  0.36648685    -0.15020
C741        C  0.26423432  0.86726706  0.35673375     0.35610
C742        C  0.28534157  0.89289787  0.33263670    -0.26400
C743        C  0.33048898  0.86966672  0.31777296    -0.15640
C744        C  0.35490306  0.81914926  0.32738367     0.36690
N745        N  0.40215512  0.79483445  0.31323341    -0.89890
H746        H  0.35311262  0.75513185  0.35896731     0.17810
H747        H  0.26680352  0.93193811  0.32575032     0.17800
N748        N  0.21949182  0.89507768  0.37132721    -0.88920
H749        H  0.41449143  0.75742370  0.32266550     0.35180
H750        H  0.43484261  0.82054586  0.31578896     0.40270
H751        H  0.20928546  0.87494163  0.38991516     0.39890
H752        H  0.18482436  0.89555800  0.35829859     0.34780
C753        C  0.00264108  0.72177194  0.36806838    -0.26950
C754        C  0.02058858  0.74422635  0.39305930    -0.15020
C755        C  0.98329736  0.77386904  0.41048192     0.35610
C756        C  0.92723963  0.77485186  0.40392497    -0.26400
C757        C  0.90881175  0.74587447  0.38090997    -0.15640
C758        C  0.94680881  0.72246622  0.36163054     0.36690
N759        N  0.92992193  0.69575179  0.33658369    -0.89890
H760        H  0.03180028  0.69978648  0.35457824     0.17810
H761        H  0.89771066  0.79318565  0.41851878     0.17800
N762        N  0.00010813  0.79956437  0.43582098    -0.88920
H763        H  0.94770176  0.71560677  0.31948904     0.35180
H764        H  0.88734939  0.70069170  0.33360518     0.40270
H765        H  0.04286835  0.79696929  0.43828687     0.39890
H766        H  0.98336327  0.77845155  0.45279325     0.34780
C767        C  0.43347198  0.61989359  0.40346563    -0.26950
C768        C  0.41179431  0.61111537  0.43029108    -0.15020
C769        C  0.44760962  0.60336347  0.45346685     0.35610
C770        C  0.50356941  0.61285629  0.44995189    -0.26400
C771        C  0.52314308  0.63084386  0.42392674    -0.15640
C772        C  0.48858517  0.63168841  0.40003287     0.36690
N773        N  0.50608659  0.65017214  0.37275858    -0.89890
H774        H  0.40575337  0.62635325  0.38571937     0.17810
H775        H  0.53051401  0.61140354  0.46812066     0.17800
N776        N  0.42756921  0.59086775  0.48110591    -0.88920
H777        H  0.49941517  0.61906874  0.35858254     0.35180
H778        H  0.54825828  0.65658211  0.37223870     0.40270
H779        H  0.38549634  0.58372787  0.48063476     0.39890
H780        H  0.43240215  0.62506290  0.49355210     0.34780
C781        C  0.16051764  0.43478477  0.48447134    -0.26950
C782        C  0.17312598  0.39061679  0.46638576    -0.15020
C783        C  0.18458257  0.40331438  0.43789291     0.35610
C784        C  0.18214203  0.45808437  0.42835653    -0.26400
C785        C  0.17055427  0.50205308  0.44651243    -0.15640
C786        C  0.15966505  0.48992077  0.47509279     0.36690
N787        N  0.14757864  0.53199158  0.49518563    -0.89890
H788        H  0.15269564  0.42655716  0.50650475     0.17810
H789        H  0.19087581  0.46652700  0.40642033     0.17800
N790        N  0.19837573  0.36170278  0.41795433    -0.88920
H791        H  0.10750564  0.52710603  0.50254658     0.35180
H792        H  0.14761575  0.57079960  0.48587661     0.40270
H793        H  0.16731091  0.33363260  0.41814103     0.39890
H794        H  0.23567595  0.34175049  0.42386006     0.34780
C795        C  0.16205832  0.91921751  0.45421795    -0.26950
C796        C  0.21132716  0.88616956  0.45532005    -0.15020
C797        C  0.26203450  0.91217985  0.45411749     0.35610
C798        C  0.26287465  0.96868286  0.45339038    -0.26400
C799        C  0.21449849  0.00247742  0.45371736    -0.15640
C800        C  0.16312028  0.97729910  0.45355578     0.36690
N801        N  0.11260091  0.01025109  0.45265053    -0.89890
H802        H  0.12291392  0.89984467  0.45388564     0.17810
H803        H  0.30314628  0.98585936  0.45290870     0.17800
N804        N  0.31380350  0.88149728  0.45260920    -0.88920
H805        H  0.07869959  0.98553500  0.45283176     0.35180
H806        H  0.11148816  0.03140488  0.43340650     0.40270
H807        H  0.33816957  0.89214257  0.46958394     0.39890
H808        H  0.33374627  0.89259258  0.43405152     0.34780
C809        C  0.80830953  0.47903703  0.42371199    -0.26950
C810        C  0.76416494  0.51699353  0.42946239    -0.15020
C811        C  0.72052549  0.49890772  0.44662180     0.35610
C812        C  0.72124924  0.44422892  0.45639154    -0.26400
C813        C  0.76503282  0.40653863  0.45053970    -0.15640
C814        C  0.80960426  0.42458554  0.43414288     0.36690
N815        N  0.85612670  0.38887020  0.42708343    -0.89890
H816        H  0.84200711  0.49140768  0.41051354     0.17810
H817        H  0.68771507  0.43118562  0.46955055     0.17800
N818        N  0.67478604  0.53553088  0.45380206    -0.88920
H819        H  0.85703655  0.38564514  0.40521626     0.35180
H820        H  0.85163478  0.34939947  0.43497185     0.40270
H821        H  0.68967816  0.56466778  0.46728656     0.39890
H822        H  0.64499421  0.51510361  0.46517628     0.34780
C823        C  0.68108230  0.99912033  0.43715805    -0.26950
C824        C  0.73182926  0.02373944  0.44037300    -0.15020
C825        C  0.78027120  0.98790808  0.44023762     0.35610
C826        C  0.77537023  0.93014864  0.43739917    -0.26400
C827        C  0.72362944  0.90643865  0.43449838    -0.15640
C828        C  0.67630331  0.94294519  0.43421415     0.36690
N829        N  0.62188082  0.92383055  0.43058420    -0.89890
H830        H  0.64276874  0.02368627  0.43748233     0.17810
H831        H  0.81249549  0.90379015  0.43720328     0.17800
N832        N  0.83482975  0.00776403  0.44233640    -0.88920
H833        H  0.60435433  0.94287660  0.41269124     0.35180
H834        H  0.59803058  0.93543957  0.44799249     0.40270
H835        H  0.83403697  0.05024156  0.44181393     0.39890
H836        H  0.85649790  0.99555538  0.42433076     0.34780
C837        C  0.94970076  0.15056282  0.47756822    -0.26950
C838        C  0.91937003  0.16392537  0.50162295    -0.15020
C839        C  0.94542945  0.16602426  0.52801856     0.35610
C840        C  0.00273273  0.16021742  0.52915605    -0.26400
C841        C  0.03350484  0.15327160  0.50451929    -0.15640
C842        C  0.00697340  0.14533252  0.47863717     0.36690
N843        N  0.03664201  0.13744275  0.45274969    -0.89890
H844        H  0.92913572  0.14896022  0.45740306     0.17810
H845        H  0.02347390  0.16653236  0.54892462     0.17800
N846        N  0.91561024  0.17750935  0.55354465    -0.88920
H847        H  0.02585507  0.09999931  0.44470234     0.35180
H848        H  0.07910903  0.13408791  0.45610455     0.40270
H849        H  0.87303753  0.17965541  0.55029116     0.39890
H850        H  0.92644681  0.21587519  0.56036639     0.34780
C851        C  0.50191146  0.26823671  0.43237015    -0.26950
C852        C  0.52459528  0.29217131  0.45595850    -0.15020
C853        C  0.48974773  0.31826091  0.47578355     0.35610
C854        C  0.43261636  0.31251448  0.47381716    -0.26400
C855        C  0.41134606  0.27909958  0.45319898    -0.15640
C856        C  0.44528270  0.26079500  0.43093529     0.36690
N857        N  0.42286347  0.22979835  0.40863209    -0.89890
H858        H  0.52912544  0.24872536  0.41705852     0.17810
H859        H  0.40604912  0.32732263  0.49064284     0.17800
N860        N  0.51268249  0.34498511  0.49940732    -0.88920
H861        H  0.45368944  0.21798891  0.39430314     0.35180
H862        H  0.39457958  0.25565657  0.39768974     0.40270
H863        H  0.53354070  0.31523015  0.51189676     0.39890
H864        H  0.48129918  0.36247583  0.51189834     0.34780
C865        C  0.30789576  0.02237267  0.58261126    -0.26950
C866        C  0.35620501  0.04244207  0.59390396    -0.15020
C867        C  0.38484238  0.08128359  0.57805710     0.35610
C868        C  0.36372577  0.10099190  0.55233141    -0.26400
C869        C  0.31369039  0.08366003  0.54168962    -0.15640
C870        C  0.28615339  0.04264671  0.55672292     0.36690
N871        N  0.23639209  0.02167188  0.54574529    -0.89890
H872        H  0.28617467  0.99199674  0.59434743     0.17810
H873        H  0.38614870  0.13145274  0.54094526     0.17800
N874        N  0.43623049  0.10088977  0.58732456    -0.88920
H875        H  0.22111628  0.99227547  0.55944054     0.35180
H876        H  0.24655808  0.00163854  0.52707767     0.40270
H877        H  0.46353523  0.06727851  0.59106297     0.39890
H878        H  0.43001131  0.12212071  0.60598651     0.34780
C879        C  0.64215617  0.01856204  0.56557725    -0.26950
C880        C  0.61124188  0.04991438  0.58517142    -0.15020
C881        C  0.60514330  0.10719718  0.58103157     0.35610
C882        C  0.62643776  0.13069515  0.55653074    -0.26400
C883        C  0.65365403  0.09846140  0.53635444    -0.15640
C884        C  0.66344157  0.04203358  0.54125821     0.36690
N885        N  0.69285841  0.00703443  0.52175587    -0.89890
H886        H  0.64856854  0.97482068  0.56863665     0.17810
H887        H  0.62043722  0.17430006  0.55271676     0.17800
N888        N  0.57655954  0.14132907  0.60111939    -0.88920
H889        H  0.72830244  0.99085279  0.53191629     0.35180
H890        H  0.70631413  0.02859684  0.50419585     0.40270
H891        H  0.53493546  0.13276593  0.60049023     0.39890
H892        H  0.57853293  0.18255695  0.59544117     0.34780
C893        C  0.61600307  0.44306829  0.57650477    -0.26950
C894        C  0.63583745  0.43180112  0.60393070    -0.15020
C895        C  0.68325357  0.39640765  0.60732689     0.35610
C896        C  0.70668046  0.37034476  0.58374691    -0.26400
C897        C  0.68464600  0.37896506  0.55662801    -0.15640
C898        C  0.63977844  0.41722305  0.55289250     0.36690
N899        N  0.61919784  0.43081635  0.52522764    -0.89890
H900        H  0.58057144  0.47109299  0.57340154     0.17810
H901        H  0.74163876  0.34166691  0.58676497     0.17800
N902        N  0.70715845  0.38617385  0.63464365    -0.88920
H903        H  0.58958379  0.46318592  0.52600083     0.35180
H904        H  0.59856136  0.39741240  0.51805162     0.40270
H905        H  0.72248157  0.42281344  0.64147587     0.39890
H906        H  0.74098470  0.35821787  0.63350880     0.34780
C907        C  0.29344510  0.39262544  0.55155894    -0.26950
C908        C  0.27241418  0.34422661  0.56170962    -0.15020
C909        C  0.28123283  0.32704724  0.58981148     0.35610
C910        C  0.31222792  0.35907229  0.60734697    -0.26400
C911        C  0.33333645  0.40760795  0.59711059    -0.15640
C912        C  0.32423851  0.42453641  0.56889790     0.36690
N913        N  0.34780695  0.47307659  0.55771200    -0.89890
H914        H  0.28667175  0.40492680  0.52980339     0.17810
H915        H  0.31982903  0.34636315  0.62895915     0.17800
N916        N  0.26102406  0.27622463  0.59996253    -0.88920
H917        H  0.33643074  0.47978651  0.53671600     0.35180
H918        H  0.39068981  0.46647443  0.55790154     0.40270
H919        H  0.21802601  0.28071915  0.60078351     0.39890
H920        H  0.27418485  0.26824015  0.62058957     0.34780
C921        C  0.53582930  0.70518286  0.63058605    -0.26950
C922        C  0.49409188  0.68407778  0.61463908    -0.15020
C923        C  0.45043016  0.71856744  0.60409083     0.35610
C924        C  0.44435645  0.77169824  0.61386714    -0.26400
C925        C  0.48165086  0.79050214  0.63344377    -0.15640
C926        C  0.52913785  0.75752543  0.64119708     0.36690
N927        N  0.56842281  0.77552983  0.66128450    -0.89890
H928        H  0.56931373  0.67824797  0.63843715     0.17810
H929        H  0.40959630  0.79769586  0.60673928     0.17800
N930        N  0.40962891  0.69936009  0.58524703    -0.88920
H931        H  0.60125035  0.74668704  0.66395720     0.35180
H932        H  0.54841058  0.77838282  0.68070176     0.40270
H933        H  0.42035983  0.65964820  0.57887912     0.39890
H934        H  0.41035695  0.72367631  0.56702876     0.34780
C935        C  0.54430866  0.26324540  0.68298551    -0.26950
C936        C  0.49788801  0.29733483  0.68955575    -0.15020
C937        C  0.45058180  0.27447558  0.70076986     0.35610
C938        C  0.44801355  0.21778499  0.70146380    -0.26400
C939        C  0.49117694  0.18383446  0.69051960    -0.15640
C940        C  0.54146935  0.20685786  0.68317850     0.36690
N941        N  0.58940749  0.17497916  0.67458721    -0.89890
H942        H  0.58218259  0.28030155  0.67564992     0.17810
H943        H  0.41036350  0.20039903  0.70885953     0.17800
N944        N  0.40475490  0.30861284  0.71038969    -0.88920
H945        H  0.58079418  0.15496347  0.65604797     0.35180
H946        H  0.59980854  0.14631864  0.69041959     0.40270
H947        H  0.41822004  0.32993492  0.72773757     0.39890
H948        H  0.37271893  0.28496405  0.71750759     0.34780
C949        C  0.16749187  0.95339519  0.69040370    -0.26950
C950        C  0.16134152  0.93596887  0.71839135    -0.15020
C951        C  0.20928907  0.91508482  0.73303612     0.35610
C952        C  0.26160724  0.91515814  0.71991108    -0.26400
C953        C  0.26791700  0.93654250  0.69272891    -0.15640
C954        C  0.21959975  0.95322921  0.67733912     0.36690
N955        N  0.22210528  0.97215952  0.64864957    -0.89890
H956        H  0.13160081  0.96870879  0.67867454     0.17810
H957        H  0.29821706  0.90317496  0.73194341     0.17800
N958        N  0.20570751  0.89757631  0.76192335    -0.88920
H959        H  0.19796909  0.94705378  0.63668733     0.35180
H960        H  0.26197699  0.96660285  0.64068794     0.40270
H961        H  0.19576554  0.93217573  0.77382117     0.39890
H962        H  0.24400708  0.88200816  0.76924133     0.34780
C963        C  0.72844789  0.00778334  0.71738900    -0.26950
C964        C  0.77142313  0.97186180  0.70762061    -0.15020
C965        C  0.75713926  0.92892863  0.69014943     0.35610
C966        C  0.70148337  0.92463046  0.68183551    -0.26400
C967        C  0.65874107  0.96274707  0.69007100    -0.15640
C968        C  0.67269077  0.00352012  0.70909436     0.36690
N969        N  0.63086008  0.04179389  0.71919194    -0.89890
H970        H  0.73867951  0.04040465  0.73126446     0.17810
H971        H  0.69210884  0.89241007  0.66756054     0.17800
N972        N  0.79936733  0.89138059  0.67971754    -0.88920
H973        H  0.64802470  0.07005895  0.73242192     0.35180
H974        H  0.60364764  0.01990858  0.73152330     0.40270
H975        H  0.82516985  0.91344017  0.66665997     0.39890
H976        H  0.78219914  0.86197969  0.66717804     0.34780
C977        C  0.12524173  0.10054073  0.81720795    -0.26950
C978        C  0.12915665  0.04320255  0.81630429    -0.15020
C979        C  0.16513228  0.01438370  0.83544506     0.35610
C980        C  0.19375058  0.04351710  0.85561008    -0.26400
C981        C  0.18614169  0.10034955  0.85753181    -0.15640
C982        C  0.15279597  0.12934971  0.83774610     0.36690
N983        N  0.14587597  0.18783503  0.83912962    -0.89890
H984        H  0.09848275  0.12297045  0.80271194     0.17810
H985        H  0.21942899  0.02146552  0.87102419     0.17800
N986        N  0.17236200  0.95587619  0.83465024    -0.88920
H987        H  0.11956761  0.20308603  0.82317366     0.35180
H988        H  0.18433626  0.20390404  0.83530769     0.40270
H989        H  0.13696078  0.93969431  0.84326935     0.39890
H990        H  0.20484621  0.94217902  0.84777455     0.34780
C991        C  0.88164368  0.04161922  0.82529508    -0.26950
C992        C  0.86550979  0.07090369  0.80084263    -0.15020
C993        C  0.83427163  0.12048623  0.80314910     0.35610
C994        C  0.82139026  0.14096816  0.82969156    -0.26400
C995        C  0.83926295  0.11299990  0.85416670    -0.15640
C996        C  0.86869200  0.06188351  0.85202680     0.36690
N997        N  0.88532404  0.02915709  0.87618563    -0.89890
H998        H  0.90528906  0.00314746  0.82366407     0.17810
H999        H  0.79743670  0.17925879  0.83112397     0.17800
N1000       N  0.81473954  0.14974261  0.77854649    -0.88920
H1001       H  0.86526364  0.99245768  0.87513646     0.35180
H1002       H  0.87250654  0.04725811  0.89490442     0.40270
H1003       H  0.77170467  0.15368436  0.77959651     0.39890
H1004       H  0.82994750  0.18889497  0.77890184     0.34780
C1005       C  0.71437624  0.55158861  0.66140365    -0.26950
C1006       C  0.68132195  0.55696875  0.68560417    -0.15020
C1007       C  0.70737127  0.55930010  0.71202751     0.35610
C1008       C  0.76523085  0.55248291  0.71386151    -0.26400
C1009       C  0.79766590  0.54171450  0.68996627    -0.15640
C1010       C  0.77202868  0.54278289  0.66327798     0.36690
N1011       N  0.80271053  0.53325959  0.63784139    -0.89890
H1012       H  0.69491246  0.54863688  0.64103584     0.17810
H1013       H  0.78477639  0.55126874  0.73434371     0.17800
N1014       N  0.67460428  0.56490874  0.73706236    -0.88920
H1015       H  0.79044971  0.49656969  0.62950263     0.35180
H1016       H  0.84500006  0.52852153  0.64173268     0.40270
H1017       H  0.65373602  0.60320222  0.73603960     0.39890
H1018       H  0.69982266  0.56476426  0.75485967     0.34780
C1019       C  0.22490557  0.55763171  0.71618068    -0.26950
C1020       C  0.18625621  0.52191439  0.70525491    -0.15020
C1021       C  0.20662759  0.48238858  0.68572293     0.35610
C1022       C  0.26275233  0.47985566  0.67795510    -0.26400
C1023       C  0.30063793  0.51571683  0.68878063    -0.15640
C1024       C  0.28118008  0.55537506  0.70795538     0.36690
N1025       N  0.31882303  0.59254085  0.71949396    -0.89890
H1026       H  0.21139079  0.58763535  0.73147636     0.17810
H1027       H  0.27664691  0.45028848  0.66246321     0.17800
N1028       N  0.17181395  0.44414697  0.67312360    -0.88920
H1029       H  0.29865116  0.61818736  0.73396595     0.35180
H1030       H  0.33187181  0.61770747  0.70312619     0.40270
H1031       H  0.13913645  0.46563906  0.66296460     0.39890
H1032       H  0.15663974  0.41876779  0.68883572     0.34780
C1033       C  0.90778922  0.71597245  0.74654131    -0.26950
C1034       C  0.95137406  0.68534141  0.75936604    -0.15020
C1035       C  0.98349072  0.70857834  0.78015283     0.35610
C1036       C  0.97606752  0.76429053  0.78515305    -0.26400
C1037       C  0.93843110  0.79681457  0.76911673    -0.15640
C1038       C  0.90145774  0.77226497  0.75108441     0.36690
N1039       N  0.86141724  0.80491855  0.73539129    -0.89890
H1040       H  0.88221312  0.69740600  0.73105883     0.17810
H1041       H  0.00377274  0.78345295  0.79942126     0.17800
N1042       N  0.02567416  0.67611402  0.79476032    -0.88920
H1043       H  0.82250986  0.79046377  0.73985947     0.35180
H1044       H  0.86920975  0.79922788  0.71401110     0.40270
H1045       H  0.00614532  0.64638009  0.80657180     0.39890
H1046       H  0.04628704  0.69983945  0.80905638     0.34780
C1047       C  0.04612234  0.27065798  0.73509047    -0.26950
C1048       C  0.05291880  0.29347046  0.70829910    -0.15020
C1049       C  0.05943497  0.25956849  0.68482702     0.35610
C1050       C  0.05364272  0.20305085  0.68836551    -0.26400
C1051       C  0.03950034  0.18166090  0.71470760    -0.15640
C1052       C  0.03679774  0.21531695  0.73835732     0.36690
N1053       N  0.01787846  0.19435406  0.76483609    -0.89890
H1054       H  0.03997121  0.29733292  0.75291313     0.17810
H1055       H  0.05511698  0.17669721  0.67029858     0.17800
N1056       N  0.06915928  0.28294205  0.65752571    -0.88920
H1057       H  0.01792508  0.22434228  0.78021299     0.35180
H1058       H  0.04615275  0.16337548  0.77119861     0.40270
H1059       H  0.03415926  0.30706559  0.65180096     0.39890
H1060       H  0.07362785  0.25222643  0.64258930     0.34780
C1061       C  0.78742245  0.39063677  0.80509842    -0.26950
C1062       C  0.81867652  0.37611495  0.82931117    -0.15020
C1063       C  0.87524965  0.38846974  0.82963921     0.35610
C1064       C  0.89934442  0.41156098  0.80546962    -0.26400
C1065       C  0.86826613  0.42340926  0.78113643    -0.15640
C1066       C  0.81162325  0.41375794  0.78109653     0.36690
N1067       N  0.77893504  0.42713173  0.75653637    -0.89890
H1068       H  0.74407798  0.38221351  0.80437839     0.17810
H1069       H  0.94290565  0.41938056  0.80539272     0.17800
N1070       N  0.90839630  0.37697122  0.85421665    -0.88920
H1071       H  0.73768253  0.41859561  0.76000568     0.35180
H1072       H  0.79306550  0.40167696  0.74037756     0.40270
H1073       H  0.89310227  0.40239060  0.87014873     0.39890
H1074       H  0.94917492  0.38721650  0.85071959     0.34780
C1075       C  0.13981802  0.44176001  0.82928281    -0.26950
C1076       C  0.14740044  0.43173233  0.80060933    -0.15020
C1077       C  0.18963217  0.39455448  0.79161934     0.35610
C1078       C  0.22109431  0.36528535  0.81180421    -0.26400
C1079       C  0.21089768  0.37252771  0.84053821    -0.15640
C1080       C  0.17165131  0.41283442  0.84944174     0.36690
N1081       N  0.16439900  0.42425194  0.87877796    -0.89890
H1082       H  0.10815890  0.47145960  0.83598883     0.17810
H1083       H  0.25212274  0.33503277  0.80501682     0.17800
N1084       N  0.20109593  0.38733533  0.76221714    -0.88920
H1085       H  0.13342328  0.45479786  0.88166761     0.35180
H1086       H  0.20102235  0.43973171  0.88606570     0.40270
H1087       H  0.16955417  0.36512038  0.75379727     0.39890
H1088       H  0.23738707  0.36323125  0.75950223     0.34780
loop_ 
_geom_bond_atom_site_label_1 
_geom_bond_atom_site_label_2 
_geom_bond_distance 
_geom_bond_site_symmetry_2 
_ccdc_geom_bond_type 
O1           Ni7   1.918       .  S
O1           C22   1.271   1_655  A
O2          Ni25   1.891       .  S
O2           C11   1.265       .  A
O3           Ni7   1.922       .  S
O3          Ni25   1.917       .  S
O3          Ni19   1.944   1_655  S
O3           H26   0.966       .  S
C4           O21   1.279       .  A
C4           O13   1.277       .  A
C4         C1076   1.457       .  S
O5          Ni24   1.910       .  S
O5           C11   1.275   1_455  A
O6          Ni24   1.925       .  S
O6            C8   1.273       .  A
Ni7          O10   1.940       .  S
Ni7          O12   1.911       .  S
C8           O18   1.279       .  A
C8         C1020   1.523       .  S
O9          Ni25   1.911       .  S
O9           C15   1.267       .  A
O10          C15   1.272       .  A
C11        C1034   1.455       .  S
O12          C14   1.271       .  A
O13         Ni24   1.903       .  S
C14          O20   1.278       .  A
C14        C1065   1.481       .  S
C15        C1009   1.482       .  S
H16          O17   0.966   1_655  S
O17         Ni25   1.898   1_455  S
O17         Ni19   1.864       .  S
O17         Ni24   1.881       .  S
O18         Ni19   1.949       .  S
Ni19         O23   1.891       .  S
Ni19         O21   1.912       .  S
O20         Ni25   1.957       .  S
C22          O23   1.262       .  A
C22        C1048   1.455       .  S
O27         Ni33   1.900       .  S
O27          C48   1.273   1_455  A
O28         Ni51   1.891       .  S
O28          C37   1.263       .  A
O29         Ni33   1.871   1_655  S
O29         Ni51   1.862   1_665  S
O29         Ni45   1.919       .  S
O29          H52   0.965       .  S
C30          O47   1.280       .  A
C30          O39   1.272   1_565  A
C30         C964   1.510       .  S
O31         Ni50   1.920       .  S
O31          C37   1.271   1_655  A
O32         Ni50   1.898       .  S
O32          C34   1.271       .  A
Ni33         O36   1.918       .  S
Ni33         O38   1.912       .  S
C34          O44   1.278   1_545  A
C34         C992   1.473       .  S
O35         Ni51   1.944       .  S
O35          C41   1.285       .  A
O36          C41   1.279   1_565  A
C37        C1051   1.455       .  S
O38          C40   1.268       .  A
O39         Ni50   1.936       .  S
C40          O46   1.280       .  A
C40         C950   1.507       .  S
C41         C978   1.493       .  S
H42          O43   0.966       .  S
O43         Ni51   1.954   1_655  S
O43         Ni45   1.917   1_545  S
O43         Ni50   1.917       .  S
O44         Ni45   1.945       .  S
Ni45         O49   1.910       .  S
Ni45         O47   1.949       .  S
O46         Ni51   1.951   1_565  S
C48          O49   1.274       .  A
C48        C1037   1.458       .  S
O53         Ni59   1.893       .  S
O53          C74   1.263       .  A
O54         Ni77   1.888       .  S
O54          C63   1.270       .  A
O55         Ni59   1.903       .  S
O55         Ni77   1.906       .  S
O55         Ni71   1.925       .  S
O55          H78   0.966       .  S
C56          O73   1.281       .  A
C56          O65   1.277       .  A
C56         C911   1.455       .  S
O57         Ni76   1.896       .  S
O57          C63   1.273       .  A
O58         Ni76   1.906       .  S
O58          C60   1.267       .  A
Ni59         O62   1.901       .  S
Ni59         O64   1.932       .  S
C60          O70   1.282       .  A
C60        C1023   1.498       .  S
O61         Ni77   1.957       .  S
O61          C67   1.282       .  A
O62          C67   1.268       .  A
C63         C922   1.442       .  S
O64          C66   1.272       .  A
O65         Ni76   1.903       .  S
C66          O72   1.267       .  A
C66         C894   1.496       .  S
C67        C1006   1.487       .  S
H68          O69   0.966       .  S
O69         Ni77   1.898       .  S
O69         Ni71   1.869       .  S
O69         Ni76   1.863       .  S
O70         Ni71   1.964       .  S
Ni71         O75   1.904       .  S
Ni71         O73   1.910       .  S
O72         Ni77   1.914       .  S
C74          O75   1.270       .  A
C74         C936   1.465       .  S
O79         Ni85   1.894       .  S
O79         C100   1.269       .  A
O80        Ni103   1.912       .  S
O80          C89   1.276       .  A
O81         Ni85   1.908       .  S
O81        Ni103   1.909   1_545  S
O81         Ni97   1.958       .  S
O81         H104   0.966   1_545  S
C82          O99   1.291       .  A
C82          O91   1.282   1_545  A
C82         C880   1.484       .  S
O83        Ni102   1.875       .  S
O83          C89   1.259       .  A
O84        Ni102   1.892       .  S
O84          C86   1.261       .  A
Ni85         O88   1.924       .  S
Ni85         O90   1.902       .  S
C86          O96   1.286       .  A
C86         C967   1.520       .  S
O87        Ni103   1.946       .  S
O87          C93   1.278       .  A
O88          C93   1.268   1_545  A
C89         C925   1.458       .  S
O90          C92   1.271       .  A
O91        Ni102   1.897       .  S
C92          O98   1.285   1_545  A
C92         C866   1.488       .  S
C93         C953   1.495       .  S
H94          O95   0.965       .  S
O95        Ni103   1.916       .  S
O95         Ni97   1.848   1_565  S
O95        Ni102   1.849       .  S
O96         Ni97   1.977   1_565  S
Ni97        O101   1.890       .  S
Ni97         O99   1.951       .  S
O98        Ni103   1.975       .  S
C100        O101   1.267       .  A
C100        C939   1.470       .  S
O105       Ni111   1.920       .  S
O105        C126   1.278       .  A
O106       Ni129   1.909       .  S
O106        C115   1.264       .  A
O107       Ni111   1.873       .  S
O107       Ni129   1.868       .  S
O107       Ni123   1.919       .  S
O107        H130   0.966       .  S
C108        O125   1.283       .  A
C108        O117   1.275       .  A
C108        C824   1.530       .  S
O109       Ni128   1.908       .  S
O109        C115   1.265       .  A
O110       Ni128   1.909       .  S
O110        C112   1.267       .  A
Ni111       O114   1.925       .  S
Ni111       O116   1.926       .  S
C112        O122   1.263       .  A
C112        C883   1.456       .  S
O113       Ni129   1.938       .  S
O113        C119   1.285       .  A
O114        C119   1.282       .  A
C115        C852   1.459       .  S
O116        C118   1.272       .  A
O117       Ni128   1.917       .  S
C118        O124   1.276       .  A
C118        C813   1.498       .  S
C119        C897   1.490       .  S
H120        O121   0.966       .  S
O121       Ni129   1.947       .  S
O121       Ni123   1.916       .  S
O121       Ni128   1.904       .  S
O122       Ni123   1.905       .  S
Ni123       O127   1.883       .  S
Ni123       O125   1.966       .  S
O124       Ni129   1.938       .  S
C126        O127   1.267       .  A
C126        C838   1.443       .  S
O131       Ni137   1.916       .  S
O131        C152   1.272       .  A
O132       Ni155   1.891       .  S
O132        C141   1.270       .  A
O133       Ni137   1.900       .  S
O133       Ni155   1.918       .  S
O133       Ni149   1.937       .  S
O133        H156   0.966       .  S
C134        O151   1.281       .  A
C134        O143   1.276       .  A
C134        C908   1.449       .  S
O135       Ni154   1.911       .  S
O135        C141   1.277       .  A
O136       Ni154   1.936       .  S
O136        C138   1.273       .  A
Ni137       O140   1.913       .  S
Ni137       O142   1.917       .  S
C138        O148   1.275       .  A
C138        C782   1.513       .  S
O139       Ni155   1.929       .  S
O139        C145   1.271       .  A
O140        C145   1.271       .  A
C141        C841   1.445       .  S
O142        C144   1.277       .  A
O143       Ni154   1.902       .  S
C144        O150   1.281       .  A
C144        C869   1.494       .  S
C145        C799   1.501       .  S
H146        O147   0.965       .  S
O147       Ni155   1.893       .  S
O147       Ni149   1.857       .  S
O147       Ni154   1.872       .  S
O148       Ni149   1.941       .  S
Ni149       O153   1.892       .  S
Ni149       O151   1.914       .  S
O150       Ni155   1.959       .  S
C152        O153   1.263       .  A
C152        C855   1.466       .  S
O157       Ni163   1.910       .  S
O157        C178   1.269       .  A
O158       Ni181   1.888       .  S
O158        C167   1.269       .  A
O159       Ni163   1.897       .  S
O159       Ni181   1.919       .  S
O159       Ni175   1.928       .  S
O159        H182   0.966       .  S
C160        O177   1.282       .  A
C160        O169   1.280       .  A
C160        C726   1.463       .  S
O161       Ni180   1.911       .  S
O161        C167   1.277       .  A
O162       Ni180   1.927       .  S
O162        C164   1.272       .  A
Ni163       O166   1.908       .  S
Ni163       O168   1.926       .  S
C164        O174   1.278       .  A
C164        C785   1.502       .  S
O165       Ni181   1.933       .  S
O165        C171   1.276       .  A
O166        C171   1.271       .  A
C167        C754   1.446       .  S
O168        C170   1.273       .  A
O169       Ni180   1.912       .  S
C170        O176   1.271       .  A
C170        C740   1.485       .  S
C171        C796   1.495       .  S
H172        O173   0.966       .  S
O173       Ni181   1.904       .  S
O173       Ni175   1.857       .  S
O173       Ni180   1.865       .  S
O174       Ni175   1.947       .  S
Ni175       O179   1.895       .  S
Ni175       O177   1.912       .  S
O176       Ni181   1.931       .  S
C178        O179   1.262       .  A
C178        C768   1.452       .  S
O183       Ni189   1.916       .  S
O183        C204   1.280       .  A
O184       Ni207   1.878       .  S
O184        C193   1.256       .  A
O185       Ni189   1.880       .  S
O185       Ni207   1.857       .  S
O185       Ni201   1.919       .  S
O185        H208   0.963       .  S
C186        O203   1.282       .  A
C186        O195   1.271       .  A
C186        C827   1.530       .  S
O187       Ni206   1.928       .  S
O187        C193   1.271       .  A
O188       Ni206   1.903       .  S
O188        C190   1.271       .  A
Ni189       O192   1.925       .  S
Ni189       O194   1.937       .  S
C190        O200   1.272       .  A
C190        C712   1.466       .  S
O191       Ni207   1.935       .  S
O191        C197   1.282       .  A
O192        C197   1.279       .  A
C193        C771   1.453       .  S
O194        C196   1.274       .  A
O195       Ni206   1.921       .  S
C196        O202   1.274       .  A
C196        C810   1.514       .  S
C197        C698   1.495       .  S
H198        O199   0.966       .  S
O199       Ni207   1.941       .  S
O199       Ni201   1.923       .  S
O199       Ni206   1.908       .  S
O200       Ni201   1.930       .  S
Ni201       O205   1.890       .  S
Ni201       O203   1.964       .  S
O202       Ni207   1.931       .  S
C204        O205   1.270       .  A
C204        C757   1.448       .  S
O209       Ni215   1.935       .  S
O209        C230   1.281       .  A
O210       Ni233   1.879       .  S
O210        C219   1.262       .  A
O211       Ni215   1.886       .  S
O211       Ni233   1.859       .  S
O211       Ni227   1.901       .  S
O211        H234   0.965       .  S
C212        O229   1.274       .  A
C212        O221   1.270       .  A
C212        C656   1.504       .  S
O213       Ni232   1.919       .  S
O213        C219   1.272       .  A
O214       Ni232   1.914       .  S
O214        C216   1.276       .  A
Ni215       O218   1.933       .  S
Ni215       O220   1.932       .  S
C216        O226   1.275       .  A
C216        C995   1.468       .  S
O217       Ni233   1.938       .  S
O217        C223   1.284       .  A
O218        C223   1.283       .  A
C219        C684   1.461       .  S
O220        C222   1.273       .  A
O221       Ni232   1.943       .  S
C222        O228   1.277       .  A
C222        C642   1.511       .  S
C223       C1062   1.505       .  S
H224        O225   0.966       .  S
O225       Ni233   1.963       .  S
O225       Ni227   1.908       .  S
O225       Ni232   1.926       .  S
O226       Ni227   1.933       .  S
Ni227       O231   1.870       .  S
Ni227       O229   1.942       .  S
O228       Ni233   1.946       .  S
C230        O231   1.261       .  A
C230        C673   1.442       .  S
O235       Ni241   1.916       .  S
O235        C256   1.272       .  A
O236       Ni259   1.891       .  S
O236        C245   1.268       .  A
O237       Ni241   1.908       .  S
O237       Ni259   1.914       .  S
O237       Ni253   1.940       .  S
O237        H260   0.966       .  S
C238        O255   1.282       .  A
C238        O247   1.278       .  A
C238       C1079   1.461       .  S
O239       Ni258   1.903       .  S
O239        C245   1.273       .  A
O240       Ni258   1.920       .  S
O240        C242   1.269       .  A
Ni241       O244   1.935       .  S
Ni241       O246   1.906       .  S
C242        O252   1.278       .  A
C242        C617   1.507       .  S
O243       Ni259   1.919       .  S
O243        C249   1.272       .  A
O244        C249   1.273       .  A
C245        C670   1.440       .  S
O246        C248   1.270       .  A
O247       Ni258   1.899       .  S
C248        O254   1.277       .  A
C248        C981   1.472       .  S
C249        C631   1.484       .  S
H250        O251   0.966       .  S
O251       Ni259   1.895       .  S
O251       Ni253   1.859       .  S
O251       Ni258   1.870       .  S
O252       Ni253   1.946       .  S
Ni253       O257   1.888       .  S
Ni253       O255   1.922       .  S
O254       Ni259   1.955       .  S
C256        O257   1.262       .  A
C256        C687   1.461       .  S
O261       Ni267   1.920       .  S
O261        C282   1.273       .  A
O262       Ni285   1.885   1_554  S
O262        C271   1.266       .  A
O263       Ni267   1.916       .  S
O263       Ni285   1.910       .  S
O263       Ni279   1.943       .  S
O263        H286   0.966       .  S
C264        O281   1.280       .  A
C264        O273   1.278       .  A
C264        C575   1.463       .  S
O265       Ni284   1.910   1_556  S
O265        C271   1.277   1_556  A
O266       Ni284   1.920   1_556  S
O266        C268   1.271       .  A
Ni267       O270   1.942       .  S
Ni267       O272   1.915       .  S
C268        O278   1.278       .  A
C268        C614   1.503       .  S
O269       Ni285   1.924       .  S
O269        C275   1.270       .  A
O270        C275   1.273       .  A
C271        C586   1.450       .  S
O272        C274   1.273   1_556  A
O273       Ni284   1.904       .  S
C274        O280   1.279       .  A
C274        C558   1.493       .  S
C275        C628   1.488       .  S
H276        O277   0.965       .  S
O277       Ni285   1.897   1_554  S
O277       Ni279   1.859   1_554  S
O277       Ni284   1.873       .  S
O278       Ni279   1.947       .  S
Ni279       O283   1.884       .  S
Ni279       O281   1.916   1_556  S
O280       Ni285   1.951   1_554  S
C282        O283   1.262       .  A
C282        C603   1.462       .  S
O287       Ni293   1.899   1_556  S
O287        C308   1.274   1_556  A
O288       Ni311   1.882       .  S
O288        C297   1.261       .  A
O289       Ni293   1.872       .  S
O289       Ni311   1.851   1_554  S
O289       Ni305   1.916   1_554  S
O289        H312   0.963       .  S
C290        O307   1.278       .  A
C290        O299   1.272       .  A
C290        C659   1.506       .  S
O291       Ni310   1.921       .  S
O291        C297   1.273       .  A
O292       Ni310   1.911   1_554  S
O292        C294   1.276       .  A
Ni293       O296   1.911       .  S
Ni293       O298   1.924   1_554  S
C294        O304   1.280       .  A
C294        C533   1.491       .  S
O295       Ni311   1.942   1_554  S
O295        C301   1.286       .  A
O296        C301   1.280       .  A
C297        C600   1.463       .  S
O298        C300   1.270       .  A
O299       Ni310   1.944       .  S
C300        O306   1.280       .  A
C300        C645   1.524       .  S
C301        C544   1.476       .  S
H302        O303   0.966       .  S
O303       Ni311   1.960       .  S
O303       Ni305   1.912       .  S
O303       Ni310   1.916       .  S
O304       Ni305   1.957   1_554  S
Ni305       O309   1.897   1_556  S
Ni305       O307   1.950       .  S
O306       Ni311   1.957       .  S
C308        O309   1.271       .  A
C308        C589   1.447       .  S
O313       Ni319   1.907       .  S
O313        C334   1.270       .  A
O314       Ni337   1.905       .  S
O314        C323   1.269       .  A
O315       Ni319   1.906       .  S
O315       Ni337   1.917       .  S
O315       Ni331   1.948       .  S
O315        H338   0.966       .  S
C316        O333   1.287       .  A
C316        O325   1.277       .  A
C316        C729   1.463       .  S
O317       Ni336   1.887       .  S
O317        C323   1.267       .  A
O318       Ni336   1.905       .  S
O318        C320   1.264       .  A
Ni319       O322   1.927       .  S
Ni319       O324   1.910       .  S
C320        O330   1.276       .  A
C320        C488   1.493       .  S
O321       Ni337   1.914       .  S
O321        C327   1.269       .  A
O322        C327   1.271       .  A
C323        C502   1.449       .  S
O324        C326   1.272       .  A
O325       Ni336   1.890       .  S
C326        O332   1.279       .  A
C326        C701   1.476       .  S
C327        C474   1.476       .  S
H328        O329   0.965       .  S
O329       Ni337   1.901       .  S
O329       Ni331   1.860       .  S
O329       Ni336   1.865       .  S
O330       Ni331   1.948       .  S
Ni331       O335   1.898       .  S
Ni331       O333   1.935       .  S
O332       Ni337   1.957       .  S
C334        O335   1.266       .  A
C334        C516   1.462       .  S
O339       Ni345   1.924       .  S
O339        C360   1.282       .  A
O340       Ni363   1.876       .  S
O340        C349   1.259       .  A
O341       Ni345   1.880   1_565  S
O341       Ni363   1.852       .  S
O341       Ni357   1.902       .  S
O341        H364   0.956       .  S
C342        O359   1.275       .  A
C342        O351   1.271       .  A
C342        C460   1.507       .  S
O343       Ni362   1.924       .  S
O343        C349   1.273       .  A
O344       Ni362   1.912       .  S
O344        C346   1.276       .  A
Ni345       O348   1.935   1_545  S
Ni345       O350   1.932       .  S
C346        O356   1.277       .  A
C346        C715   1.478       .  S
O347       Ni363   1.929       .  S
O347        C353   1.281       .  A
O348        C353   1.282       .  A
C349        C519   1.466       .  S
O350        C352   1.274   1_545  A
O351       Ni362   1.946       .  S
C352        O358   1.277       .  A
C352        C446   1.501       .  S
C353        C743   1.492       .  S
H354        O355   0.966       .  S
O355       Ni363   1.960       .  S
O355       Ni357   1.912       .  S
O355       Ni362   1.924       .  S
O356       Ni357   1.945       .  S
Ni357       O361   1.880   1_565  S
Ni357       O359   1.947       .  S
O358       Ni363   1.942       .  S
C360        O361   1.267       .  A
C360        C505   1.455       .  S
O365       Ni371   1.916       .  S
O365        C386   1.270   1_655  A
O366       Ni389   1.893       .  S
O366        C375   1.267       .  A
O367       Ni371   1.911       .  S
O367       Ni389   1.916       .  S
O367       Ni383   1.944   1_655  S
O367        H390   0.966       .  S
C368        O385   1.281       .  A
C368        O377   1.278       .  A
C368        C572   1.464       .  S
O369       Ni388   1.906       .  S
O369        C375   1.274   1_455  A
O370       Ni388   1.921       .  S
O370        C372   1.271       .  A
Ni371       O374   1.929       .  S
Ni371       O376   1.912       .  S
C372        O382   1.277       .  A
C372        C491   1.500       .  S
O373       Ni389   1.918       .  S
O373        C379   1.268       .  A
O374        C379   1.270       .  A
C375        C418   1.456       .  S
O376        C378   1.276       .  A
O377       Ni388   1.904       .  S
C378        O384   1.278       .  A
C378        C547   1.488       .  S
C379        C477   1.479       .  S
H380        O381   0.962   1_655  S
O381       Ni389   1.896   1_455  S
O381       Ni383   1.857       .  S
O381       Ni388   1.871       .  S
O382       Ni383   1.937       .  S
Ni383       O387   1.892       .  S
Ni383       O385   1.920       .  S
O384       Ni389   1.955       .  S
C386        O387   1.265       .  A
C386        C432   1.465       .  S
O391       Ni397   1.903       .  S
O391        C412   1.275   1_455  A
O392       Ni415   1.885       .  S
O392        C401   1.261       .  A
O393       Ni397   1.873   1_565  S
O393       Ni415   1.859       .  S
O393       Ni409   1.915   1_455  S
O393        H416   0.962   1_455  S
C394        O411   1.281       .  A
C394        O403   1.272       .  A
C394        C463   1.503       .  S
O395       Ni414   1.926       .  S
O395        C401   1.273   1_655  A
O396       Ni414   1.912       .  S
O396        C398   1.273       .  A
Ni397       O400   1.916   1_545  S
Ni397       O402   1.919   1_545  S
C398        O408   1.276       .  A
C398        C530   1.479       .  S
O399       Ni415   1.936       .  S
O399        C405   1.282       .  A
O400        C405   1.278       .  A
C401        C435   1.463       .  S
O402        C404   1.269       .  A
O403       Ni414   1.934       .  S
C404        O410   1.282       .  A
C404        C449   1.521       .  S
C405        C561   1.472       .  S
H406        O407   0.966       .  S
O407       Ni415   1.948   1_655  S
O407       Ni409   1.919       .  S
O407       Ni414   1.921       .  S
O408       Ni409   1.945       .  S
Ni409       O413   1.905   1_565  S
Ni409       O411   1.949       .  S
O410       Ni415   1.958       .  S
C412        O413   1.273       .  A
C412        C421   1.458       .  S
C417        C418   1.402       .  A
C417        C422   1.403       .  A
C417        H424   1.084       .  S
C418        C419   1.405       .  A
C419        C420   1.392       .  A
C419        N426   1.439   1_655  S
C420        C421   1.401       .  A
C420        H425   1.085   1_655  S
C421        C422   1.409       .  A
C422        N423   1.438       .  S
N423        H427   1.046       .  S
N423        H428   1.045       .  S
N426        H429   1.046       .  S
N426        H430   1.046       .  S
C431        C432   1.400       .  A
C431        C436   1.395       .  A
C431        H438   1.083       .  S
C432        C433   1.411       .  A
C433        C434   1.394       .  A
C433        N440   1.433       .  S
C434        C435   1.402       .  A
C434        H439   1.084       .  S
C435        C436   1.418       .  A
C436        N437   1.439       .  S
N437        H441   1.046       .  S
N437        H442   1.038       .  S
N440        H443   1.045       .  S
N440        H444   1.043   1_455  S
C445        C446   1.401   1_545  A
C445        C450   1.420       .  A
C445        H452   1.083       .  S
C446        C447   1.415       .  A
C447        C448   1.417       .  A
C447        N454   1.438       .  S
C448        C449   1.409       .  A
C448        H453   1.083       .  S
C449        C450   1.430   1_565  A
C450        N451   1.438       .  S
N451        H455   1.046       .  S
N451        H456   1.046       .  S
N454        H457   1.045       .  S
N454        H458   1.045       .  S
C459        C460   1.407       .  A
C459        C464   1.417       .  A
C459        H466   1.084       .  S
C460        C461   1.423       .  A
C461        C462   1.414       .  A
C461        N468   1.438       .  S
C462        C463   1.405       .  A
C462        H467   1.084       .  S
C463        C464   1.423       .  A
C464        N465   1.437       .  S
N465        H469   1.046       .  S
N465        H470   1.043       .  S
N468        H471   1.042       .  S
N468        H472   1.046   1_565  S
C473        C474   1.407       .  A
C473        C478   1.410       .  A
C473        H480   1.084       .  S
C474        C475   1.406       .  A
C475        C476   1.402       .  A
C475        N482   1.438       .  S
C476        C477   1.405       .  A
C476        H481   1.084       .  S
C477        C478   1.415       .  A
C478        N479   1.437       .  S
N479        H483   1.046       .  S
N479        H484   1.044       .  S
N482        H485   1.045       .  S
N482        H486   1.046       .  S
C487        C488   1.397       .  A
C487        C492   1.410       .  A
C487        H494   1.084       .  S
C488        C489   1.419       .  A
C489        C490   1.412       .  A
C489        N496   1.439       .  S
C490        C491   1.403       .  A
C490        H495   1.084       .  S
C491        C492   1.433       .  A
C492        N493   1.440       .  S
N493        H497   1.046       .  S
N493        H498   1.037       .  S
N496        H499   1.045       .  S
N496        H500   1.046       .  S
C501        C502   1.401       .  A
C501        C506   1.391       .  A
C501        H508   1.085       .  S
C502        C503   1.404       .  A
C503        C504   1.401       .  A
C503        N510   1.438       .  S
C504        C505   1.405       .  A
C504        H509   1.084       .  S
C505        C506   1.404       .  A
C506        N507   1.438       .  S
N507        H511   1.046       .  S
N507        H512   1.045       .  S
N510        H513   1.046       .  S
N510        H514   1.046       .  S
C515        C516   1.400       .  A
C515        C520   1.401       .  A
C515        H522   1.084       .  S
C516        C517   1.411       .  A
C517        C518   1.398       .  A
C517        N524   1.439       .  S
C518        C519   1.400       .  A
C518        H523   1.084       .  S
C519        C520   1.413       .  A
C520        N521   1.438       .  S
N521        H525   1.046       .  S
N521        H526   1.045       .  S
N524        H527   1.044       .  S
N524        H528   1.046       .  S
C529        C530   1.400       .  A
C529        C534   1.404       .  A
C529        H536   1.084       .  S
C530        C531   1.408       .  A
C531        C532   1.405       .  A
C531        N538   1.436       .  S
C532        C533   1.407       .  A
C532        H537   1.084       .  S
C533        C534   1.425       .  A
C534        N535   1.437       .  S
N535        H539   1.044       .  S
N535        H540   1.036       .  S
N538        H541   1.045       .  S
N538        H542   1.046       .  S
C543        C544   1.400       .  A
C543        C548   1.406       .  A
C543        H550   1.084       .  S
C544        C545   1.419       .  A
C545        C546   1.395       .  A
C545        N552   1.440       .  S
C546        C547   1.402       .  A
C546        H551   1.085       .  S
C547        C548   1.427       .  A
C548        N549   1.437       .  S
N549        H553   1.046       .  S
N549        H554   1.035       .  S
N552        H555   1.040       .  S
N552        H556   1.046       .  S
C557        C558   1.410       .  A
C557        C562   1.407       .  A
C557        H564   1.081       .  S
C558        C559   1.420       .  A
C559        C560   1.401       .  A
C559        N566   1.433       .  S
C560        C561   1.401       .  A
C560        H565   1.084       .  S
C561        C562   1.405       .  A
C562        N563   1.438       .  S
N563        H567   1.046       .  S
N563        H568   1.046       .  S
N566        H569   1.046       .  S
N566        H570   1.044       .  S
C571        C572   1.403       .  A
C571        C576   1.395       .  A
C571        H578   1.084       .  S
C572        C573   1.409       .  A
C573        C574   1.396       .  A
C573        N580   1.438       .  S
C574        C575   1.404       .  A
C574        H579   1.084       .  S
C575        C576   1.415       .  A
C576        N577   1.441       .  S
N577        H581   1.046       .  S
N577        H582   1.042   1_554  S
N580        H583   1.043       .  S
N580        H584   1.046       .  S
C585        C586   1.397       .  A
C585        C590   1.390       .  A
C585        H592   1.085       .  S
C586        C587   1.410   1_554  A
C587        C588   1.400       .  A
C587        N594   1.438       .  S
C588        C589   1.398   1_556  A
C588        H593   1.084       .  S
C589        C590   1.406       .  A
C590        N591   1.439       .  S
N591        H595   1.046       .  S
N591        H596   1.045       .  S
N594        H597   1.046       .  S
N594        H598   1.046       .  S
C599        C600   1.403       .  A
C599        C604   1.393   1_655  A
C599        H606   1.085       .  S
C600        C601   1.417       .  A
C601        C602   1.396   1_655  A
C601        N608   1.439       .  S
C602        C603   1.402       .  A
C602        H607   1.085       .  S
C603        C604   1.409       .  A
C604        N605   1.438       .  S
N605        H609   1.046       .  S
N605        H610   1.045       .  S
N608        H611   1.040   1_556  S
N608        H612   1.046   1_556  S
C613        C614   1.413       .  A
C613        C618   1.413       .  A
C613        H620   1.084       .  S
C614        C615   1.415       .  A
C615        C616   1.412       .  A
C615        N622   1.437       .  S
C616        C617   1.415       .  A
C616        H621   1.084       .  S
C617        C618   1.418       .  A
C618        N619   1.439       .  S
N619        H623   1.046       .  S
N619        H624   1.042       .  S
N622        H625   1.043       .  S
N622        H626   1.046       .  S
C627        C628   1.403       .  A
C627        C632   1.413       .  A
C627        H634   1.084       .  S
C628        C629   1.413       .  A
C629        C630   1.404       .  A
C629        N636   1.434       .  S
C630        C631   1.398   1_565  A
C630        H635   1.084   1_565  S
C631        C632   1.424   1_545  A
C632        N633   1.438       .  S
N633        H637   1.045       .  S
N633        H638   1.042   1_565  S
N636        H639   1.045       .  S
N636        H640   1.046   1_556  S
C641        C642   1.409       .  A
C641        C646   1.412       .  A
C641        H648   1.084       .  S
C642        C643   1.420       .  A
C643        C644   1.418       .  A
C643        N650   1.437       .  S
C644        C645   1.417       .  A
C644        H649   1.083       .  S
C645        C646   1.423       .  A
C646        N647   1.431       .  S
N647        H651   1.045       .  S
N647        H652   1.045       .  S
N650        H653   1.043       .  S
N650        H654   1.045       .  S
C655        C656   1.403       .  A
C655        C660   1.410   1_545  A
C655        H662   1.084       .  S
C656        C657   1.425   1_545  A
C657        C658   1.419       .  A
C657        N664   1.438   1_565  S
C658        C659   1.407       .  A
C658        H663   1.084       .  S
C659        C660   1.423       .  A
C660        N661   1.436   1_556  S
N661        H665   1.045       .  S
N661        H666   1.041       .  S
N664        H667   1.043       .  S
N664        H668   1.046       .  S
C669        C670   1.398       .  A
C669        C674   1.390       .  A
C669        H676   1.085       .  S
C670        C671   1.410       .  A
C671        C672   1.393       .  A
C671        N678   1.438       .  S
C672        C673   1.398       .  A
C672        H677   1.084       .  S
C673        C674   1.410       .  A
C674        N675   1.439       .  S
N675        H679   1.046       .  S
N675        H680   1.043       .  S
N678        H681   1.044       .  S
N678        H682   1.046       .  S
C683        C684   1.399       .  A
C683        C688   1.392   1_655  A
C683        H690   1.084       .  S
C684        C685   1.411       .  A
C685        C686   1.395   1_655  A
C685        N692   1.438       .  S
C686        C687   1.402       .  A
C686        H691   1.085       .  S
C687        C688   1.417       .  A
C688        N689   1.436       .  S
N689        H693   1.046       .  S
N689        H694   1.038       .  S
N692        H695   1.044       .  S
N692        H696   1.046   1_556  S
C697        C698   1.407       .  A
C697        C702   1.402       .  A
C697        H704   1.079       .  S
C698        C699   1.418       .  A
C699        C700   1.410       .  A
C699        N706   1.438       .  S
C700        C701   1.402       .  A
C700        H705   1.084       .  S
C701        C702   1.413       .  A
C702        N703   1.439       .  S
N703        H707   1.046       .  S
N703        H708   1.043       .  S
N706        H709   1.045       .  S
N706        H710   1.046       .  S
C711        C712   1.396       .  A
C711        C716   1.391       .  A
C711        H718   1.085       .  S
C712        C713   1.410       .  A
C713        C714   1.405       .  A
C713        N720   1.437       .  S
C714        C715   1.404       .  A
C714        H719   1.084       .  S
C715        C716   1.419       .  A
C716        N717   1.428       .  S
N717        H721   1.043       .  S
N717        H722   1.044       .  S
N720        H723   1.045       .  S
N720        H724   1.046       .  S
C725        C726   1.399       .  A
C725        C730   1.394       .  A
C725        H732   1.084       .  S
C726        C727   1.413       .  A
C727        C728   1.400       .  A
C727        N734   1.438       .  S
C728        C729   1.400       .  A
C728        H733   1.084       .  S
C729        C730   1.412       .  A
C730        N731   1.439       .  S
N731        H735   1.046       .  S
N731        H736   1.046       .  S
N734        H737   1.045       .  S
N734        H738   1.046       .  S
C739        C740   1.403       .  A
C739        C744   1.408       .  A
C739        H746   1.084       .  S
C740        C741   1.420       .  A
C741        C742   1.408       .  A
C741        N748   1.438       .  S
C742        C743   1.406       .  A
C742        H747   1.084       .  S
C743        C744   1.416       .  A
C744        N745   1.439       .  S
N745        H749   1.046       .  S
N745        H750   1.046       .  S
N748        H751   1.042       .  S
N748        H752   1.045       .  S
C753        C754   1.398       .  A
C753        C758   1.389   1_455  A
C753        H760   1.085       .  S
C754        C755   1.410   1_455  A
C755        C756   1.395       .  A
C755        N762   1.438   1_655  S
C756        C757   1.401       .  A
C756        H761   1.085       .  S
C757        C758   1.409       .  A
C758        N759   1.439       .  S
N759        H763   1.046       .  S
N759        H764   1.044       .  S
N762        H765   1.043       .  S
N762        H766   1.046   1_455  S
C767        C768   1.399       .  A
C767        C772   1.392       .  A
C767        H774   1.086       .  S
C768        C769   1.410       .  A
C769        C770   1.399       .  A
C769        N776   1.437       .  S
C770        C771   1.399       .  A
C770        H775   1.084       .  S
C771        C772   1.413       .  A
C772        N773   1.440       .  S
N773        H777   1.045       .  S
N773        H778   1.044       .  S
N776        H779   1.045       .  S
N776        H780   1.046       .  S
C781        C782   1.416       .  A
C781        C786   1.416       .  A
C781        H788   1.084       .  S
C782        C783   1.418       .  A
C783        C784   1.409       .  A
C783        N790   1.432       .  S
C784        C785   1.410       .  A
C784        H789   1.084       .  S
C785        C786   1.416       .  A
C786        N787   1.437       .  S
N787        H791   1.046       .  S
N787        H792   1.043       .  S
N790        H793   1.045       .  S
N790        H794   1.045       .  S
C795        C796   1.412       .  A
C795        C800   1.425       .  A
C795        H802   1.083       .  S
C796        C797   1.414       .  A
C797        C798   1.386       .  A
C797        N804   1.435       .  S
C798        C799   1.404   1_565  A
C798        H803   1.083       .  S
C799        C800   1.418   1_545  A
C800        N801   1.436   1_565  S
N801        H805   1.046   1_545  S
N801        H806   1.046       .  S
N804        H807   1.046       .  S
N804        H808   1.046       .  S
C809        C810   1.414       .  A
C809        C814   1.416       .  A
C809        H816   1.083       .  S
C810        C811   1.421       .  A
C811        C812   1.412       .  A
C811        N818   1.438       .  S
C812        C813   1.405       .  A
C812        H817   1.084       .  S
C813        C814   1.418       .  A
C814        N815   1.438       .  S
N815        H819   1.046       .  S
N815        H820   1.043       .  S
N818        H821   1.046       .  S
N818        H822   1.046       .  S
C823        C824   1.408   1_565  A
C823        C828   1.397       .  A
C823        H830   1.083   1_565  S
C824        C825   1.433   1_545  A
C825        C826   1.435       .  A
C825        N832   1.437   1_565  S
C826        C827   1.417       .  A
C826        H831   1.083       .  S
C827        C828   1.421       .  A
C828        N829   1.435       .  S
N829        H833   1.046       .  S
N829        H834   1.046       .  S
N832        H835   1.041       .  S
N832        H836   1.046   1_545  S
C837        C838   1.396       .  A
C837        C842   1.391   1_655  A
C837        H844   1.085       .  S
C838        C839   1.410       .  A
C839        C840   1.392   1_655  A
C839        N846   1.439       .  S
C840        C841   1.398       .  A
C840        H845   1.085       .  S
C841        C842   1.412       .  A
C842        N843   1.438       .  S
N843        H847   1.045       .  S
N843        H848   1.042       .  S
N846        H849   1.044       .  S
N846        H850   1.046       .  S
C851        C852   1.401       .  A
C851        C856   1.397       .  A
C851        H858   1.085       .  S
C852        C853   1.407       .  A
C853        C854   1.404       .  A
C853        N860   1.437       .  S
C854        C855   1.403       .  A
C854        H859   1.084       .  S
C855        C856   1.408       .  A
C856        N857   1.438       .  S
N857        H861   1.046       .  S
N857        H862   1.045       .  S
N860        H863   1.046       .  S
N860        H864   1.046       .  S
C865        C866   1.404       .  A
C865        C870   1.415       .  A
C865        H872   1.082   1_545  S
C866        C867   1.415       .  A
C867        C868   1.398       .  A
C867        N874   1.431       .  S
C868        C869   1.404       .  A
C868        H873   1.084       .  S
C869        C870   1.419       .  A
C870        N871   1.438       .  S
N871        H875   1.046   1_545  S
N871        H876   1.046       .  S
N874        H877   1.045       .  S
N874        H878   1.044       .  S
C879        C880   1.411       .  A
C879        C884   1.395       .  A
C879        H886   1.084   1_545  S
C880        C881   1.416       .  A
C881        C882   1.403       .  A
C881        N888   1.437       .  S
C882        C883   1.399       .  A
C882        H887   1.084       .  S
C883        C884   1.408       .  A
C884        N885   1.440       .  S
N885        H889   1.046   1_545  S
N885        H890   1.043       .  S
N888        H891   1.043       .  S
N888        H892   1.046       .  S
C893        C894   1.411       .  A
C893        C898   1.409       .  A
C893        H900   1.083       .  S
C894        C895   1.415       .  A
C895        C896   1.407       .  A
C895        N902   1.438       .  S
C896        C897   1.407       .  A
C896        H901   1.084       .  S
C897        C898   1.412       .  A
C898        N899   1.438       .  S
N899        H903   1.046       .  S
N899        H904   1.043       .  S
N902        H905   1.046       .  S
N902        H906   1.046       .  S
C907        C908   1.394       .  A
C907        C912   1.390       .  A
C907        H914   1.085       .  S
C908        C909   1.410       .  A
C909        C910   1.400       .  A
C909        N916   1.438       .  S
C910        C911   1.399       .  A
C910        H915   1.084       .  S
C911        C912   1.414       .  A
C912        N913   1.440       .  S
N913        H917   1.046       .  S
N913        H918   1.046       .  S
N916        H919   1.045       .  S
N916        H920   1.046       .  S
C921        C922   1.391       .  A
C921        C926   1.389       .  A
C921        H928   1.085       .  S
C922        C923   1.411       .  A
C923        C924   1.391       .  A
C923        N930   1.438       .  S
C924        C925   1.399       .  A
C924        H929   1.084       .  S
C925        C926   1.421       .  A
C926        N927   1.441       .  S
N927        H931   1.046       .  S
N927        H932   1.046       .  S
N930        H933   1.045       .  S
N930        H934   1.046       .  S
C935        C936   1.408       .  A
C935        C940   1.388       .  A
C935        H942   1.084       .  S
C936        C937   1.404       .  A
C937        C938   1.394       .  A
C937        N944   1.438       .  S
C938        C939   1.411       .  A
C938        H943   1.083       .  S
C939        C940   1.411       .  A
C940        N941   1.433       .  S
N941        H945   1.043       .  S
N941        H946   1.045       .  S
N944        H947   1.046       .  S
N944        H948   1.046       .  S
C949        C950   1.403       .  A
C949        C954   1.409       .  A
C949        H956   1.084       .  S
C950        C951   1.427       .  A
C951        C952   1.415       .  A
C951        N958   1.438       .  S
C952        C953   1.400       .  A
C952        H957   1.084       .  S
C953        C954   1.423       .  A
C954        N955   1.438       .  S
N955        H959   1.046       .  S
N955        H960   1.043       .  S
N958        H961   1.046       .  S
N958        H962   1.046       .  S
C963        C964   1.415   1_545  A
C963        C968   1.420       .  A
C963        H970   1.084       .  S
C964        C965   1.409       .  A
C965        C966   1.418       .  A
C965        N972   1.438       .  S
C966        C967   1.421       .  A
C966        H971   1.083       .  S
C967        C968   1.413   1_565  A
C968        N969   1.436       .  S
N969        H973   1.045       .  S
N969        H974   1.046       .  S
N972        H975   1.046       .  S
N972        H976   1.045       .  S
C977        C978   1.406       .  A
C977        C982   1.404       .  A
C977        H984   1.075       .  S
C978        C979   1.419       .  A
C979        C980   1.409       .  A
C979        N986   1.438   1_545  S
C980        C981   1.401       .  A
C980        H985   1.084       .  S
C981        C982   1.405       .  A
C982        N983   1.438       .  S
N983        H987   1.046       .  S
N983        H988   1.046       .  S
N986        H989   1.045       .  S
N986        H990   1.046       .  S
C991        C992   1.404       .  A
C991        C996   1.404       .  A
C991        H998   1.084       .  S
C992        C993   1.407       .  A
C993        C994   1.397       .  A
C993       N1000   1.433       .  S
C994        C995   1.401       .  A
C994        H999   1.083       .  S
C995        C996   1.417       .  A
C996        N997   1.439       .  S
N997       H1001   1.046   1_545  S
N997       H1002   1.042       .  S
N1000      H1003   1.046       .  S
N1000      H1004   1.046       .  S
C1005      C1006   1.408       .  A
C1005      C1010   1.408       .  A
C1005      H1012   1.084       .  S
C1006      C1007   1.412       .  A
C1007      C1008   1.409       .  A
C1007      N1014   1.437       .  S
C1008      C1009   1.404       .  A
C1008      H1013   1.084       .  S
C1009      C1010   1.415       .  A
C1010      N1011   1.438       .  S
N1011      H1015   1.045       .  S
N1011      H1016   1.044       .  S
N1014      H1017   1.045       .  S
N1014      H1018   1.046       .  S
C1019      C1020   1.419       .  A
C1019      C1024   1.420       .  A
C1019      H1026   1.083       .  S
C1020      C1021   1.425       .  A
C1021      C1022   1.410       .  A
C1021      N1028   1.431       .  S
C1022      C1023   1.407       .  A
C1022      H1027   1.084       .  S
C1023      C1024   1.409       .  A
C1024      N1025   1.437       .  S
N1025      H1029   1.045       .  S
N1025      H1030   1.045       .  S
N1028      H1031   1.045       .  S
N1028      H1032   1.044       .  S
C1033      C1034   1.402       .  A
C1033      C1038   1.401       .  A
C1033      H1040   1.084       .  S
C1034      C1035   1.405       .  A
C1035      C1036   1.393       .  A
C1035      N1042   1.439   1_655  S
C1036      C1037   1.402       .  A
C1036      H1041   1.085   1_655  S
C1037      C1038   1.405       .  A
C1038      N1039   1.432       .  S
N1039      H1043   1.045       .  S
N1039      H1044   1.046       .  S
N1042      H1045   1.046       .  S
N1042      H1046   1.046       .  S
C1047      C1048   1.398       .  A
C1047      C1052   1.393       .  A
C1047      H1054   1.085       .  S
C1048      C1049   1.408       .  A
C1049      C1050   1.407       .  A
C1049      N1056   1.437       .  S
C1050      C1051   1.401       .  A
C1050      H1055   1.084       .  S
C1051      C1052   1.406       .  A
C1052      N1053   1.438       .  S
N1053      H1057   1.046       .  S
N1053      H1058   1.040       .  S
N1056      H1059   1.045       .  S
N1056      H1060   1.046       .  S
C1061      C1062   1.412       .  A
C1061      C1066   1.409       .  A
C1061      H1068   1.083       .  S
C1062      C1063   1.421       .  A
C1063      C1064   1.414       .  A
C1063      N1070   1.437       .  S
C1064      C1065   1.402       .  A
C1064      H1069   1.084       .  S
C1065      C1066   1.407       .  A
C1066      N1067   1.438       .  S
N1067      H1071   1.046       .  S
N1067      H1072   1.045       .  S
N1070      H1073   1.046       .  S
N1070      H1074   1.046       .  S
C1075      C1076   1.402       .  A
C1075      C1080   1.396       .  A
C1075      H1082   1.084       .  S
C1076      C1077   1.409       .  A
C1077      C1078   1.396       .  A
C1077      N1084   1.439       .  S
C1078      C1079   1.403       .  A
C1078      H1083   1.084       .  S
C1079      C1080   1.409       .  A
C1080      N1081   1.438       .  S
N1081      H1085   1.046       .  S
N1081      H1086   1.045       .  S
N1084      H1087   1.045       .  S
N1084      H1088   1.046       .  S
