geometry optimzed in LAMMPS
_audit_creation_date              2020-12-01 
_audit_creation_method            'lammps2cif' 
_symmetry_space_group_name_H-M    'P1' 
_symmetry_Int_Tables_number       1 
_symmetry_cell_setting            triclinic 
loop_ 
_symmetry_equiv_pos_as_xyz 
  x,y,z 
_cell_length_a                    54.19160231 
_cell_length_b                    54.4576645336124 
_cell_length_c                    30.061275524898978 
_cell_angle_alpha                 90.1197912335744 
_cell_angle_beta                  90.19785212698082 
_cell_angle_gamma                 89.95798230286285 
loop_ 
_atom_site_label 
_atom_site_type_symbol 
_atom_site_fract_x 
_atom_site_fract_y 
_atom_site_fract_z 
_atom_site_charge 
Fe1        Fe  0.15340327  0.34090178  0.84146715     1.65800
Fe2        Fe  0.09709261  0.35882279  0.87985576     1.73200
Fe3        Fe  0.10153346  0.31086376  0.80614543     1.54400
O4          O  0.11939264  0.32251878  0.74942778    -0.81900
O5          O  0.08012677  0.32876780  0.90890340    -0.80200
O6          O  0.15558325  0.33568420  0.77418030    -0.84400
O7          O  0.16003175  0.30436070  0.85258168    -0.79300
O8          O  0.07153018  0.33173330  0.78643143    -0.81000
O9          O  0.12160851  0.36052845  0.93223360    -0.83800
C10         C  0.14939744  0.28487662  0.83979451     0.97000
C11         C  0.14099266  0.33063002  0.74264755     1.04400
O12         O  0.11725854  0.33684556  0.84262221    -1.12800
O13         O  0.11258220  0.39006707  0.85263456    -0.75200
O14         O  0.15023527  0.37844758  0.83013633    -0.78700
O15         O  0.12859251  0.28495998  0.82027680    -0.79400
C16         C  0.13354359  0.39464794  0.83565056     0.95900
O17         O  0.15735718  0.34616668  0.90864434    -0.77300
O18         O  0.06863838  0.36214522  0.83517959    -0.82500
C19         C  0.07490521  0.30695182  0.89636544     0.98500
C20         C  0.06050204  0.35030759  0.80214415     1.04400
O21         O  0.08181003  0.29768451  0.85960469    -0.78200
C22         C  0.14404374  0.35530012  0.93877331     1.02700
Fe23       Fe  0.33678957  0.15699026  0.83617489     1.65800
Fe24       Fe  0.35134584  0.10234198  0.87871819     1.73200
Fe25       Fe  0.30138907  0.10813353  0.81230244     1.54400
O26         O  0.27992696  0.13984128  0.82233251    -0.81900
O27         O  0.35701006  0.07776728  0.82760956    -0.80200
O28         O  0.30301608  0.16548197  0.86253721    -0.84400
O29         O  0.32217255  0.15922740  0.77252437    -0.79300
O30         O  0.28736466  0.09372565  0.87065262    -0.81000
O31         O  0.38324544  0.12101279  0.85855844    -0.83800
C32         C  0.31822818  0.14347129  0.74220955     0.97000
C33         C  0.28238460  0.15919748  0.84605159     1.04400
O34         O  0.32980291  0.12226752  0.84244238    -1.12800
O35         O  0.34645755  0.12541808  0.93231996    -0.75200
O36         O  0.35249991  0.16087311  0.89867718    -0.78700
O37         O  0.31396740  0.12125852  0.75193936    -0.79400
C38         C  0.35129362  0.14814308  0.93378490     0.95900
O39         O  0.37100274  0.14948177  0.80998423    -0.77300
O40         O  0.32240628  0.08142694  0.90317457    -0.82500
C41         C  0.34100808  0.06642153  0.80450634     0.98500
C42         C  0.29898222  0.08146686  0.89993841     1.04400
O43         O  0.31918285  0.07472159  0.79917043    -0.78200
C44         C  0.38790320  0.13694753  0.82866375     1.02700
Fe45       Fe  0.14997524  0.69752528  0.20928258     1.65800
Fe46       Fe  0.09368611  0.67916968  0.17404201     1.73200
Fe47       Fe  0.09876859  0.72994330  0.23994426     1.54400
O48         O  0.12066187  0.72446854  0.29620629    -0.81900
O49         O  0.07805493  0.70717522  0.13826307    -0.80200
O50         O  0.15026344  0.69781218  0.27743931    -0.84400
O51         O  0.15796587  0.73461698  0.20750457    -0.79300
O52         O  0.07306730  0.70792393  0.26988093    -0.81000
O53         O  0.11935196  0.67437402  0.12386859    -0.83800
C54         C  0.14594827  0.75459831  0.20846317     0.97000
C55         C  0.13837103  0.71007563  0.30615643     1.04400
O56         O  0.11412898  0.70240299  0.20769690    -1.12800
O57         O  0.10772248  0.64937364  0.20775131    -0.75200
O58         O  0.14747765  0.65946546  0.21210165    -0.78700
O59         O  0.12289374  0.75562333  0.21492406    -0.79400
C60         C  0.13010585  0.64389839  0.21521000     0.95900
O61         O  0.15245914  0.69662526  0.14099458    -0.77300
O62         O  0.06468141  0.68000560  0.21836750    -0.82500
C63         C  0.06933909  0.72777545  0.15031151     0.98500
C64         C  0.05991347  0.69065614  0.25485715     1.04400
O65         O  0.07436368  0.73786566  0.18760674    -0.78200
C66         C  0.14017292  0.68346940  0.11402862     1.02700
Fe67       Fe  0.33721716  0.87578880  0.19348146     1.65800
Fe68       Fe  0.35546256  0.92772492  0.14553288     1.73200
Fe69       Fe  0.30481211  0.92766999  0.21113338     1.54400
O70         O  0.27982562  0.90217130  0.18633079    -0.81900
O71         O  0.35594007  0.95902241  0.18470389    -0.80200
O72         O  0.30029640  0.86875046  0.20476416    -0.84400
O73         O  0.34195592  0.88280628  0.25928332    -0.79300
O74         O  0.29778914  0.95014242  0.15632356    -0.81000
O75         O  0.38511247  0.91518227  0.18255835    -0.83800
C76         C  0.32722932  0.89424559  0.28463072     0.97000
C77         C  0.28036342  0.87928435  0.19391089     1.04400
O78         O  0.33232457  0.91071626  0.18310695    -1.12800
O79         O  0.35709565  0.89824845  0.10101274    -0.75200
O80         O  0.33257318  0.86851546  0.12711258    -0.78700
O81         O  0.30982795  0.90806096  0.27051181    -0.79400
C82         C  0.34488021  0.87838710  0.09607192     0.95900
O83         O  0.37536811  0.87605021  0.18532767    -0.77300
O84         O  0.32761665  0.94239841  0.10713895    -0.82500
C85         C  0.34483244  0.96653067  0.21929301     0.98500
C86         C  0.30817338  0.95370421  0.11893640     1.04400
O87         O  0.32720879  0.95479288  0.23715158    -0.78200
C88         C  0.39108276  0.89307679  0.18981566     1.02700
Fe89       Fe  0.68763186  0.16248058  0.20568099     1.65800
Fe90       Fe  0.66987674  0.10707019  0.16478024     1.73200
Fe91       Fe  0.72525715  0.11250800  0.21953271     1.54400
O92         O  0.74789630  0.14070408  0.19806225    -0.81900
O93         O  0.67128664  0.07859889  0.20929576    -0.80200
O94         O  0.72383978  0.17356243  0.20059638    -0.84400
O95         O  0.69179621  0.15834969  0.27282018    -0.79300
O96         O  0.73275629  0.09440298  0.16014172    -0.81000
O97         O  0.63994749  0.12023884  0.19971943    -0.83800
C98         C  0.70690099  0.14620181  0.29661108     0.97000
C99         C  0.74486406  0.16375280  0.19659698     1.04400
O100        O  0.69434761  0.12725744  0.19667936    -1.12800
O101        O  0.66566021  0.13336034  0.11565552    -0.75200
O102        O  0.68335705  0.16837011  0.13858855    -0.78700
O103        O  0.72104219  0.12956046  0.28110300    -0.79400
C104        C  0.67282105  0.15529816  0.10914949     0.95900
O105        O  0.64979551  0.15891849  0.21325253    -0.77300
O106        O  0.69645628  0.09042582  0.12652792    -0.82500
C107        C  0.68717386  0.07075454  0.23673313     0.98500
C108        C  0.71953695  0.08660069  0.12812439     1.04400
O109        O  0.70747906  0.08163498  0.24449303    -0.78200
C110        C  0.63420000  0.14162526  0.21242255     1.02700
Fe111      Fe  0.87424225  0.35368918  0.19477784     1.65800
Fe112      Fe  0.92880130  0.37080240  0.15058310     1.73200
Fe113      Fe  0.92558251  0.31760537  0.21034990     1.54400
O114        O  0.90858632  0.32232145  0.27136124    -0.81900
O115        O  0.94082810  0.34332579  0.10996232    -0.80200
O116        O  0.87813925  0.34940193  0.26140006    -0.84400
O117        O  0.86400150  0.31751726  0.18865883    -0.79300
O118        O  0.95516565  0.33684947  0.23634926    -0.81000
O119        O  0.90116532  0.37679017  0.10507393    -0.83800
C120        C  0.87424062  0.29661257  0.18766736     0.97000
C121        C  0.89161593  0.33620272  0.28613774     1.04400
O122        O  0.90955218  0.34725391  0.18536647    -1.12800
O123        O  0.91778831  0.40079444  0.18740651    -0.75200
O124        O  0.87904295  0.39105572  0.20364357    -0.78700
O125        O  0.89756515  0.29387735  0.18933246    -0.79400
C126        C  0.89654217  0.40648020  0.20164896     0.95900
O127        O  0.86692839  0.35866361  0.12859552    -0.77300
O128        O  0.95995925  0.36839787  0.19035606    -0.82500
C129        C  0.94992932  0.32232939  0.11680601     0.98500
C130        C  0.96720470  0.35524583  0.22261619     1.04400
O131        O  0.94592593  0.31050017  0.15263695    -0.78200
C132        C  0.87900523  0.37017690  0.09936257     1.02700
Fe133      Fe  0.87016694  0.68985480  0.83874443     1.65800
Fe134      Fe  0.92492668  0.66943850  0.87521887     1.73200
Fe135      Fe  0.92172502  0.72342594  0.81888660     1.54400
O136        O  0.90001388  0.72192497  0.76177129    -0.81900
O137        O  0.94052770  0.69508604  0.91645215    -0.80200
O138        O  0.87245697  0.69166597  0.77115503    -0.84400
O139        O  0.86213577  0.72713265  0.84177220    -0.79300
O140        O  0.94755566  0.70259022  0.78574228    -0.81000
O141        O  0.89774426  0.66356607  0.92313334    -0.83800
C142        C  0.87402672  0.74687109  0.84869428     0.97000
C143        C  0.88383651  0.70700525  0.74707189     1.04400
O144        O  0.90575524  0.69442526  0.84424110    -1.12800
O145        O  0.91166912  0.64193049  0.83484589    -0.75200
O146        O  0.87196342  0.65130745  0.83362018    -0.78700
O147        O  0.89742846  0.74756124  0.84896501    -0.79400
C148        C  0.88949976  0.63615152  0.82690082     0.95900
O149        O  0.86679183  0.68869580  0.90654559    -0.77300
O150        O  0.95471032  0.67201079  0.83305517    -0.82500
C151        C  0.95053985  0.71558228  0.90784729     0.98500
C152        C  0.96040787  0.68461290  0.79922567     1.04400
O153        O  0.94598153  0.72769227  0.87253606    -0.78200
C154        C  0.87823552  0.67515487  0.93391442     1.02700
Fe155      Fe  0.68767841  0.87814496  0.83421878     1.65800
Fe156      Fe  0.66962559  0.93216672  0.88074524     1.73200
Fe157      Fe  0.72286898  0.93012444  0.81987174     1.54400
O158        O  0.74735483  0.90151916  0.83263273    -0.81900
O159        O  0.66715332  0.96065101  0.83637566    -0.80200
O160        O  0.72409035  0.86825395  0.83803920    -0.84400
O161        O  0.69006512  0.88397443  0.76703185    -0.79300
O162        O  0.73298159  0.94565400  0.88029237    -0.81000
O163        O  0.63866448  0.91746699  0.85047601    -0.83800
C164        C  0.70103191  0.89945814  0.74239881     0.97000
C165        C  0.74494874  0.87850925  0.83710681     1.04400
O166        O  0.69353113  0.91347792  0.84514987    -1.12800
O167        O  0.66939119  0.90538585  0.92928895    -0.75200
O168        O  0.68477363  0.87053216  0.90067224    -0.78700
O169        O  0.71479626  0.91659835  0.75708737    -0.79400
C170        C  0.67610851  0.88307344  0.93257455     0.95900
O171        O  0.64969546  0.88038302  0.82911672    -0.77300
O172        O  0.69708489  0.95039874  0.91538682    -0.82500
C173        C  0.68258970  0.97089768  0.81096221     0.98500
C174        C  0.72016257  0.95412807  0.91219380     1.04400
O175        O  0.70367957  0.96181854  0.80279221    -0.78200
C176        C  0.63324739  0.89647133  0.83528091     1.02700
Fe177      Fe  0.36762813  0.18982485  0.33350081     1.65800
Fe178      Fe  0.42049261  0.16978590  0.37661003     1.73200
Fe179      Fe  0.41992846  0.22218215  0.31675121     1.54400
O180        O  0.39903215  0.22112257  0.25824546    -0.81900
O181        O  0.43194356  0.19647958  0.41981155    -0.80200
O182        O  0.37227897  0.19036590  0.26607507    -0.84400
O183        O  0.35997479  0.22716105  0.33390766    -0.79300
O184        O  0.44589211  0.19985552  0.28624154    -0.81000
O185        O  0.39082957  0.16256107  0.41836839    -0.83800
C186        C  0.37197254  0.24671254  0.34181093     0.97000
C187        C  0.38328849  0.20611998  0.24221022     1.04400
O188        O  0.40277283  0.19406893  0.34194956    -1.12800
O189        O  0.40976941  0.14201141  0.33482304    -0.75200
O190        O  0.36981934  0.15145113  0.33078086    -0.78700
O191        O  0.39538529  0.24715947  0.34445613    -0.79400
C192        C  0.38760712  0.13637820  0.32611398     0.95900
O193        O  0.36208343  0.18967821  0.40120870    -0.77300
O194        O  0.45295038  0.17322396  0.34055668    -0.82500
C195        C  0.44476811  0.21513229  0.40994581     0.98500
C196        C  0.45935149  0.18367996  0.30468010     1.04400
O197        O  0.44318292  0.22580712  0.37226702    -0.78200
C198        C  0.37171837  0.17479038  0.42855131     1.02700
Fe199      Fe  0.18807543  0.38286269  0.33768418     1.65800
Fe200      Fe  0.17215261  0.43733692  0.38089511     1.73200
Fe201      Fe  0.22324568  0.43308082  0.31807819     1.54400
O202        O  0.24576232  0.40142484  0.32306603    -0.81900
O203        O  0.16616192  0.45989902  0.32769309    -0.80200
O204        O  0.22295731  0.37406739  0.35836140    -0.84400
O205        O  0.19820298  0.38372227  0.27116382    -0.79300
O206        O  0.23637456  0.44583785  0.37891182    -0.81000
O207        O  0.14042995  0.41833545  0.36285384    -0.83800
C208        C  0.20355718  0.40077364  0.24394501     0.97000
C209        C  0.24335390  0.38062488  0.34210230     1.04400
O210        O  0.19457907  0.41759690  0.34580541    -1.12800
O211        O  0.17684650  0.41512080  0.43512672    -0.75200
O212        O  0.17690866  0.37811647  0.40277669    -0.78700
O213        O  0.21123568  0.42178114  0.25625771    -0.79400
C214        C  0.17544994  0.39187703  0.43684720     0.95900
O215        O  0.15225099  0.38844105  0.31725472    -0.77300
O216        O  0.20038313  0.45963218  0.40482815    -0.82500
C217        C  0.18222112  0.47346306  0.30987723     0.98500
C218        C  0.22387219  0.45937722  0.40506383     1.04400
O219        O  0.20482025  0.46685876  0.30830632    -0.78200
C220        C  0.13556644  0.40122317  0.33552862     1.02700
Fe221      Fe  0.83629430  0.37360072  0.69455053     1.65800
Fe222      Fe  0.85388632  0.42593323  0.64188306     1.73200
Fe223      Fe  0.80416284  0.42680978  0.71017482     1.54400
O224        O  0.77963049  0.39737657  0.70922207    -0.81900
O225        O  0.86090673  0.45334655  0.68755006    -0.80200
O226        O  0.79997011  0.36503808  0.68302584    -0.84400
O227        O  0.83043395  0.37861853  0.76183943    -0.79300
O228        O  0.79022106  0.43824122  0.64983807    -0.81000
O229        O  0.88541422  0.40849928  0.66443182    -0.83800
C230        C  0.82549052  0.39692011  0.78655651     0.97000
C231        C  0.78025604  0.37526116  0.69581659     1.04400
O232        O  0.83139431  0.40863491  0.68186636    -1.12800
O233        O  0.84974619  0.39995945  0.59292750    -0.75200
O234        O  0.84374423  0.36465662  0.62933884    -0.78700
O235        O  0.81676507  0.41700366  0.77205776    -0.79400
C236        C  0.84833192  0.37671984  0.59431023     0.95900
O237        O  0.87323744  0.37761723  0.70714037    -0.77300
O238        O  0.82534156  0.44590035  0.61363066    -0.82500
C239        C  0.84600542  0.46626072  0.70999063     0.98500
C240        C  0.80209215  0.44796123  0.61808714     1.04400
O241        O  0.82388448  0.45950298  0.71659317    -0.78200
C242        C  0.89002553  0.39085793  0.69060697     1.02700
Fe243      Fe  0.65226026  0.19401214  0.70035228     1.65800
Fe244      Fe  0.59901226  0.17446585  0.65190771     1.73200
Fe245      Fe  0.59785444  0.22323709  0.72460077     1.54400
O246        O  0.61488764  0.21505312  0.78473013    -0.81900
O247        O  0.58203795  0.20333167  0.61889704    -0.80200
O248        O  0.64929124  0.19431323  0.76825256    -0.84400
O249        O  0.65873851  0.23117021  0.69780188    -0.79300
O250        O  0.56913506  0.20013522  0.74285063    -0.81000
O251        O  0.62658466  0.17434006  0.60523307    -0.83800
C252        C  0.64611253  0.25067376  0.70064392     0.97000
C253        C  0.63402995  0.20302447  0.79592902     1.04400
O254        O  0.61627722  0.19725872  0.69243777    -1.12800
O255        O  0.61415553  0.14353094  0.68079092    -0.75200
O256        O  0.65091145  0.15612849  0.70429044    -0.78700
O257        O  0.62328202  0.25050467  0.70972865    -0.79400
C258        C  0.63521031  0.13921618  0.69766364     0.95900
O259        O  0.65910107  0.19335506  0.63305572    -0.77300
O260        O  0.56873154  0.17034756  0.69223767    -0.82500
C261        C  0.57403654  0.22433697  0.63082079     0.98500
C262        C  0.55929933  0.18129714  0.72522148     1.04400
O263        O  0.57850938  0.23380737  0.66860823    -0.78200
C264        C  0.64806612  0.18302131  0.60098797     1.02700
Fe265      Fe  0.65551258  0.84765196  0.33640624     1.65800
Fe266      Fe  0.60040318  0.86756009  0.37553441     1.73200
Fe267      Fe  0.60310789  0.81569123  0.31395719     1.54400
O268        O  0.61631096  0.82652092  0.25298949    -0.81900
O269        O  0.57750298  0.84062913  0.40124387    -0.80200
O270        O  0.65499795  0.83761218  0.27019961    -0.84400
O271        O  0.66237014  0.81221294  0.35630383    -0.79300
O272        O  0.57064213  0.83507112  0.30091545    -0.81000
O273        O  0.62272027  0.86424427  0.43063602    -0.83800
C274        C  0.65360522  0.79235885  0.34105490     0.97000
C275        C  0.63795407  0.83316798  0.24225498     1.04400
O276        O  0.61981345  0.84363107  0.34228370    -1.12800
O277        O  0.62053995  0.89760638  0.35506913    -0.75200
O278        O  0.65272447  0.88381806  0.31655937    -0.78700
O279        O  0.63272642  0.79145993  0.32172706    -0.79400
C280        C  0.63946556  0.90121088  0.33133348     0.95900
O281        O  0.66021345  0.85857974  0.40138627    -0.77300
O282        O  0.57678628  0.87344874  0.32270981    -0.82500
C283        C  0.57632308  0.81728753  0.40079824     0.98500
C284        C  0.56400450  0.85745842  0.30251247     1.04400
O285        O  0.58862874  0.80404226  0.37392122    -0.78200
C286        C  0.64608070  0.86336237  0.43377380     1.02700
Fe287      Fe  0.83526779  0.66310695  0.34045734     1.65800
Fe288      Fe  0.85267469  0.61106705  0.39172256     1.73200
Fe289      Fe  0.80445740  0.60987447  0.32006711     1.54400
O290        O  0.77774302  0.63395167  0.34345647    -0.81900
O291        O  0.85327679  0.57892818  0.35419933    -0.80200
O292        O  0.79760063  0.66980314  0.33809718    -0.84400
O293        O  0.83707241  0.65778627  0.27356808    -0.79300
O294        O  0.79828097  0.58613012  0.37384481    -0.81000
O295        O  0.88380444  0.62226128  0.35896653    -0.83800
C296        C  0.82315493  0.64591746  0.24745017     0.97000
C297        C  0.77802030  0.65733024  0.34372303     1.04400
O298        O  0.83088601  0.62804561  0.35045320    -1.12800
O299        O  0.85525692  0.64018381  0.43547220    -0.75200
O300        O  0.83403272  0.67139735  0.40676506    -0.78700
O301        O  0.80779621  0.62994171  0.26106201    -0.79400
C302        C  0.84522152  0.66113422  0.43863485     0.95900
O303        O  0.87354002  0.66082782  0.34177801    -0.77300
O304        O  0.82294598  0.59960261  0.42742397    -0.82500
C305        C  0.84517835  0.57235736  0.31629210     0.98500
C306        C  0.80660827  0.58498612  0.41347052     1.04400
O307        O  0.82919155  0.58462527  0.29475573    -0.78200
C308        C  0.88932526  0.64366916  0.34586101     1.02700
Fe309      Fe  0.37022306  0.84147458  0.68730035     1.65800
Fe310      Fe  0.42543796  0.86371222  0.65689143     1.73200
Fe311      Fe  0.42286526  0.81316116  0.72246331     1.54400
O312        O  0.39889224  0.81691253  0.77625378    -0.81900
O313        O  0.44377887  0.83712784  0.62179186    -0.80200
O314        O  0.36903799  0.84291562  0.75510628    -0.84400
O315        O  0.36482988  0.80371024  0.68804565    -0.79300
O316        O  0.44610190  0.83773059  0.75487596    -0.81000
O317        O  0.40008091  0.86661093  0.60543516    -0.83800
C318        C  0.37810269  0.78446383  0.68881862     0.97000
C319        C  0.38067503  0.83098370  0.78461686     1.04400
O320        O  0.40624327  0.83909372  0.68859885    -1.12800
O321        O  0.40873030  0.89192190  0.69125903    -0.75200
O322        O  0.36976084  0.87985388  0.68691930    -0.78700
O323        O  0.40130540  0.78534829  0.69496070    -0.79400
C324        C  0.38582560  0.89643101  0.69401282     0.95900
O325        O  0.36931844  0.84056866  0.61915047    -0.77300
O326        O  0.45401591  0.86461867  0.70214645    -0.82500
C327        C  0.45442306  0.81775912  0.63553838     0.98500
C328        C  0.45910172  0.85500860  0.73933420     1.04400
O329        O  0.44926073  0.80740844  0.67246523    -0.78200
C330        C  0.38080203  0.85505555  0.59365372     1.02700
Fe331      Fe  0.18763270  0.65893399  0.71318862     1.65800
Fe332      Fe  0.16820607  0.60444863  0.66936014     1.73200
Fe333      Fe  0.22056656  0.60646158  0.73443256     1.54400
O334        O  0.24660243  0.63378362  0.71948403    -0.81900
O335        O  0.16496731  0.57612574  0.71458972    -0.80200
O336        O  0.22440784  0.66705665  0.70802302    -0.84400
O337        O  0.18974681  0.65604575  0.78134329    -0.79300
O338        O  0.23028670  0.58703034  0.67663392    -0.81000
O339        O  0.13752038  0.62044899  0.69706058    -0.83800
C340        C  0.20001073  0.64116484  0.80812988     0.97000
C341        C  0.24512049  0.65669634  0.71167208     1.04400
O342        O  0.19220581  0.62319324  0.70558755    -1.12800
O343        O  0.16859398  0.63022867  0.61887346    -0.75200
O344        O  0.18519421  0.66464036  0.64585703    -0.78700
O345        O  0.21278050  0.62279899  0.79548782    -0.79400
C346        C  0.17627737  0.65211262  0.61407839     0.95900
O347        O  0.14973335  0.65746715  0.71914403    -0.77300
O348        O  0.19529344  0.58527469  0.63705765    -0.82500
C349        C  0.17916856  0.56692459  0.74378006     0.98500
C350        C  0.21749248  0.57896101  0.64395323     1.04400
O351        O  0.19948764  0.57685053  0.75470787    -0.78200
C352        C  0.13310058  0.64158509  0.71253670     1.02700
C353        C  0.36526996  0.76030126  0.68452431     0.01100
C354        C  0.36784116  0.74222435  0.71802088     0.03900
C355        C  0.35050493  0.72291561  0.72121831    -0.12100
C356        C  0.33128076  0.72076875  0.68967476     0.23200
C357        C  0.33056323  0.73706626  0.65327445    -0.12700
C358        C  0.34732545  0.75682624  0.65086964     0.04700
C359        C  0.31008738  0.70366734  0.69739567     0.27100
C360        C  0.31155598  0.67852697  0.68666856    -0.13400
C361        C  0.29090566  0.66291939  0.69264771     0.05200
C362        C  0.26792657  0.67258370  0.70745422    -0.09300
C363        C  0.26679965  0.69820464  0.71795661     0.06000
C364        C  0.28788889  0.71320178  0.71418340    -0.13700
Br365      Br  0.30540934  0.73312701  0.60821265    -0.05800
Br366      Br  0.39413087  0.74444758  0.76130619    -0.00200
Br367      Br  0.29471027  0.62858337  0.67855076     0.00300
Br368      Br  0.28660382  0.74735794  0.73226613    -0.04100
Br369      Br  0.34573788  0.77915041  0.60116351     0.00400
Br370      Br  0.35179321  0.70058930  0.77092174    -0.03400
Br371      Br  0.34193823  0.66575057  0.66257080    -0.04300
Br372      Br  0.23684174  0.71420247  0.73779100    -0.00300
C373        C  0.66907117  0.76985556  0.34388829     0.01100
C374        C  0.69385561  0.77072142  0.32927272     0.03900
C375        C  0.70888332  0.74971087  0.33183016    -0.12100
C376        C  0.69939704  0.72756745  0.34879272     0.23200
C377        C  0.67462083  0.72644001  0.36276066    -0.12700
C378        C  0.65945099  0.74751291  0.36029071     0.04700
C379        C  0.71603263  0.70587039  0.35226927     0.27100
C380        C  0.71746723  0.68882309  0.31698333    -0.13400
C381        C  0.73694747  0.67165300  0.31552804     0.05200
C382        C  0.75478396  0.67119930  0.34978643    -0.09300
C383        C  0.75210427  0.68687928  0.38687263     0.06000
C384        C  0.73287649  0.70427062  0.38798426    -0.13700
Br385      Br  0.66169724  0.69601641  0.38560474    -0.05800
Br386      Br  0.70727667  0.80032072  0.30344847    -0.00200
Br387      Br  0.74057879  0.65041460  0.26453185     0.00300
Br388      Br  0.73052024  0.72714208  0.43691545    -0.04100
Br389      Br  0.62589392  0.74589474  0.38125374     0.00400
Br390      Br  0.74271585  0.75114720  0.31182271    -0.03400
Br391      Br  0.69363502  0.69015253  0.26927572    -0.04300
Br392      Br  0.77520988  0.68492859  0.43569402    -0.00300
C393        C  0.55890066  0.80590448  0.43208964     0.01100
C394        C  0.53354398  0.81099172  0.42709874     0.03900
C395        C  0.51726445  0.80676651  0.46243889    -0.12100
C396        C  0.52607573  0.79628142  0.50226136     0.23200
C397        C  0.55086450  0.78849229  0.50528522    -0.12700
C398        C  0.56746276  0.79389596  0.47062969     0.04700
C399        C  0.51051295  0.79797841  0.54268460     0.27100
C400        C  0.51383646  0.81820019  0.57138991    -0.13400
C401        C  0.49634385  0.82321801  0.60445236     0.05200
C402        C  0.47504235  0.80850605  0.60829850    -0.09300
C403        C  0.47257510  0.78725948  0.58186797     0.06000
C404        C  0.49045054  0.78188887  0.54919716    -0.13700
Br405      Br  0.56227986  0.77228671  0.55843691    -0.05800
Br406      Br  0.52125865  0.82496598  0.37244661    -0.00200
Br407      Br  0.50132582  0.85090017  0.64365614     0.00300
Br408      Br  0.48681028  0.75353248  0.51132192    -0.04100
Br409      Br  0.60221422  0.78745138  0.47798341     0.00400
Br410      Br  0.48344576  0.81781350  0.45789616    -0.03400
Br411      Br  0.54125070  0.84042721  0.56293863    -0.04300
Br412      Br  0.44395143  0.76664942  0.58839982    -0.00300
C413        C  0.65922168  0.27428454  0.69358507     0.01100
C414        C  0.67543835  0.27671136  0.65710207     0.03900
C415        C  0.69238045  0.29625959  0.65571918    -0.12100
C416        C  0.69382813  0.31293251  0.69147103     0.23200
C417        C  0.67632152  0.31180234  0.72591548    -0.12700
C418        C  0.65831814  0.29314369  0.72590123     0.04700
C419        C  0.71520011  0.32990747  0.69480825     0.27100
C420        C  0.73680074  0.32197050  0.71662148    -0.13400
C421        C  0.75772052  0.33719751  0.71809064     0.05200
C422        C  0.75743715  0.36027017  0.69658918    -0.09300
C423        C  0.73554898  0.36846431  0.67566913     0.06000
C424        C  0.71440172  0.35336480  0.67519345    -0.13700
Br425      Br  0.67830499  0.33473228  0.77478583    -0.05800
Br426      Br  0.67426449  0.25346697  0.60850757    -0.00200
Br427      Br  0.78634998  0.32671066  0.75159927     0.00300
Br428      Br  0.68433714  0.36448832  0.64729513    -0.04100
Br429      Br  0.63295645  0.29350260  0.77061552     0.00400
Br430      Br  0.71449104  0.29966951  0.60592475    -0.03400
Br431      Br  0.73769758  0.28995724  0.74420131    -0.04300
Br432      Br  0.73479820  0.39970003  0.64555470    -0.00300
C433        C  0.78924828  0.46425309  0.58664613     0.01100
C434        C  0.79118599  0.45984528  0.54059515     0.03900
C435        C  0.78713854  0.47910498  0.51037002    -0.12100
C436        C  0.78187349  0.50286696  0.52638841     0.23200
C437        C  0.77734640  0.50661748  0.57198517    -0.12700
C438        C  0.78060555  0.48716821  0.60210066     0.04700
C439        C  0.78727929  0.52429064  0.49786246     0.27100
C440        C  0.81182747  0.53248077  0.49541142    -0.13400
C441        C  0.81797171  0.55215882  0.46768141     0.05200
C442        C  0.79929359  0.56463976  0.44335424    -0.09300
C443        C  0.77456497  0.55652833  0.44633590     0.06000
C444        C  0.76863644  0.53625996  0.47345671    -0.13700
Br445      Br  0.77028408  0.53924598  0.59367415    -0.05800
Br446      Br  0.80143083  0.42797427  0.51940207    -0.00200
Br447      Br  0.85265322  0.55996389  0.46075734     0.00300
Br448      Br  0.73512476  0.52471100  0.47754421    -0.04100
Br449      Br  0.77663904  0.49304316  0.66503727     0.00400
Br450      Br  0.79189127  0.47387602  0.44748310    -0.03400
Br451      Br  0.83728118  0.51640842  0.53020748    -0.04300
Br452      Br  0.74867249  0.57331150  0.41440758    -0.00300
C453        C  0.22740742  0.55970544  0.61378010     0.01100
C454        C  0.24861946  0.56352729  0.58768212     0.03900
C455        C  0.25581326  0.54577979  0.55587176    -0.12100
C456        C  0.24087076  0.52499997  0.54785793     0.23200
C457        C  0.22000850  0.52089080  0.57465839    -0.12700
C458        C  0.21369779  0.53776812  0.60812889     0.04700
C459        C  0.24424485  0.50953046  0.50736510     0.27100
C460        C  0.23522985  0.51830930  0.46632325    -0.13400
C461        C  0.23170570  0.50200840  0.43060432     0.05200
C462        C  0.23613265  0.47667087  0.43607482    -0.09300
C463        C  0.24740738  0.46823368  0.47551727     0.06000
C464        C  0.25187325  0.48478609  0.51092071    -0.13700
Br465      Br  0.19871980  0.49302904  0.56321040    -0.05800
Br466      Br  0.26590672  0.59426266  0.59125551    -0.00200
Br467      Br  0.21934757  0.51426505  0.37467337     0.00300
Br468      Br  0.26623548  0.47330455  0.56582963    -0.04100
Br469      Br  0.18551839  0.53075252  0.64524551     0.00400
Br470      Br  0.28540018  0.55037511  0.52152740    -0.03400
Br471      Br  0.22488473  0.55212802  0.46037741    -0.04300
Br472      Br  0.25430102  0.43373240  0.48262609    -0.00300
C473        C  0.26432264  0.36262833  0.34442803     0.01100
C474        C  0.25943284  0.33697963  0.34077214     0.03900
C475        C  0.27876948  0.31975436  0.34377791    -0.12100
C476        C  0.30329150  0.32763490  0.34914681     0.23200
C477        C  0.30843381  0.35293383  0.35229727    -0.12700
C478        C  0.28910097  0.37038980  0.35038086     0.04700
C479        C  0.32359911  0.30909766  0.34884037     0.27100
C480        C  0.33025525  0.29653785  0.38815106    -0.13400
C481        C  0.34704016  0.27671075  0.38640834     0.05200
C482        C  0.35768945  0.26977233  0.34557547    -0.09300
C483        C  0.35179620  0.28297438  0.30665209     0.06000
C484        C  0.33460261  0.30236240  0.30817001    -0.13700
Br485      Br  0.34221990  0.36344927  0.35902134    -0.05800
Br486      Br  0.22658985  0.32452893  0.32862356    -0.00200
Br487      Br  0.35456562  0.25815005  0.43932506     0.00300
Br488      Br  0.32476410  0.31866976  0.25399446    -0.04100
Br489      Br  0.29696227  0.40471295  0.35776105     0.00400
Br490      Br  0.27184792  0.28497135  0.33957773    -0.03400
Br491      Br  0.31535833  0.30577831  0.44386094    -0.04300
Br492      Br  0.36637090  0.27361904  0.25065183    -0.00300
C493        C  0.46369168  0.22313469  0.44232626     0.01100
C494        C  0.46624598  0.24805620  0.45450856     0.03900
C495        C  0.48515990  0.25520777  0.48415454    -0.12100
C496        C  0.50100354  0.23737618  0.50254760     0.23200
C497        C  0.49821033  0.21247845  0.49094038    -0.12700
C498        C  0.47996646  0.20539484  0.46040249     0.04700
C499        C  0.51993076  0.24383394  0.53617082     0.27100
C500        C  0.54496127  0.24486761  0.52375450    -0.13400
C501        C  0.56344543  0.24160284  0.55617784     0.05200
C502        C  0.55678875  0.23708405  0.60062120    -0.09300
C503        C  0.53202354  0.24028250  0.61389730     0.06000
C504        C  0.51353176  0.24327853  0.58149601    -0.13700
Br505      Br  0.51929123  0.18784087  0.51772488    -0.05800
Br506      Br  0.44295061  0.27208675  0.43298755    -0.00200
Br507      Br  0.59779456  0.24331830  0.54028955     0.00300
Br508      Br  0.47923019  0.24340424  0.59855973    -0.04100
Br509      Br  0.47844239  0.17128192  0.44228995     0.00400
Br510      Br  0.48934096  0.28923231  0.50011074    -0.03400
Br511      Br  0.55361087  0.24805576  0.46188995    -0.04300
Br512      Br  0.52292536  0.23826718  0.67584456    -0.00300
C513        C  0.67611466  0.99521858  0.79248156     0.01100
C514        C  0.67539751  0.99924304  0.74617818     0.03900
C515        C  0.66859808  0.02247047  0.72947822    -0.12100
C516        C  0.66328104  0.04194450  0.75900840     0.23200
C517        C  0.66478427  0.03810792  0.80526814    -0.12700
C518        C  0.67067845  0.01471454  0.82192321     0.04700
C519        C  0.65586810  0.06642022  0.74159705     0.27100
C520        C  0.67375694  0.08245376  0.72437105    -0.13400
C521        C  0.66670606  0.10542142  0.70710154     0.05200
C522        C  0.64191212  0.11361960  0.71078013    -0.09300
C523        C  0.62401675  0.09745348  0.72878720     0.06000
C524        C  0.63094546  0.07374018  0.74282802    -0.13700
Br525      Br  0.65914835  0.06510313  0.84581819    -0.05800
Br526      Br  0.68270314  0.97272950  0.70564710    -0.00200
Br527      Br  0.69112164  0.12440772  0.67550520     0.00300
Br528      Br  0.60632065  0.05113419  0.76447129    -0.04100
Br529      Br  0.67185738  0.00957330  0.88539416     0.00400
Br530      Br  0.66615006  0.02762062  0.66613528    -0.03400
Br531      Br  0.70816693  0.07313583  0.72582937    -0.04300
Br532      Br  0.59013193  0.10762176  0.73712993    -0.00300
C533        C  0.67289135  0.87118450  0.97554354     0.01100
C534        C  0.69251461  0.87056499  0.00616082     0.03900
C535        C  0.68795195  0.86397875  0.05047560    -0.12100
C536        C  0.66416001  0.85618154  0.06290394     0.23200
C537        C  0.64509635  0.85469138  0.03102271    -0.12700
C538        C  0.64939651  0.86254654  0.98742209     0.04700
C539        C  0.65858857  0.85039539  0.10961836     0.27100
C540        C  0.66512617  0.82738411  0.12748764    -0.13400
C541        C  0.65785692  0.82128420  0.17088527     0.05200
C542        C  0.64348661  0.83790883  0.19558708    -0.09300
C543        C  0.63690122  0.86082847  0.17762631     0.06000
C544        C  0.64501695  0.86736365  0.13511408    -0.13700
Br545      Br  0.61284098  0.84281439  0.04763826    -0.05800
Br546      Br  0.72549001  0.87840315  0.98693091    -0.00200
Br547      Br  0.66724976  0.79020217  0.19644733     0.00300
Br548      Br  0.63807077  0.89974422  0.11207377    -0.04100
Br549      Br  0.62321598  0.86141167  0.94378935     0.00400
Br550      Br  0.71372404  0.86716327  0.09448319    -0.03400
Br551      Br  0.68402512  0.80440077  0.09250681    -0.04300
Br552      Br  0.61699640  0.88338589  0.21166569    -0.00300
C553        C  0.69608358  0.89786024  0.69452178     0.01100
C554        C  0.67132639  0.89781915  0.68030409     0.03900
C555        C  0.66545467  0.89084534  0.63683718    -0.12100
C556        C  0.68446107  0.88729303  0.60572349     0.23200
C557        C  0.70932583  0.89033883  0.61846773    -0.12700
C558        C  0.71522789  0.89478637  0.66339022     0.04700
C559        C  0.67778754  0.88150051  0.55936542     0.27100
C560        C  0.67902503  0.85709939  0.54380183    -0.13400
C561        C  0.66939298  0.85119193  0.50169796     0.05200
C562        C  0.65751416  0.86945770  0.47644438    -0.09300
C563        C  0.65712726  0.89399933  0.49128911     0.06000
C564        C  0.66769753  0.90009377  0.53241349    -0.13700
Br565      Br  0.73500448  0.88851727  0.57434492    -0.05800
Br566      Br  0.64570548  0.90996414  0.71897257    -0.00200
Br567      Br  0.67183655  0.81809601  0.47903506     0.00300
Br568      Br  0.66778646  0.93378584  0.55268056    -0.04100
Br569      Br  0.74925412  0.89613956  0.68212705     0.00400
Br570      Br  0.63136493  0.88549830  0.62041098    -0.03400
Br571      Br  0.69278254  0.83167920  0.58099379    -0.04300
Br572      Br  0.64233320  0.91936124  0.45516620    -0.00300
C573        C  0.60679003  0.89055708  0.82478815     0.01100
C574        C  0.60037749  0.87380758  0.79016818     0.03900
C575        C  0.57544931  0.87033236  0.77818153    -0.12100
C576        C  0.55653405  0.88162804  0.80276354     0.23200
C577        C  0.56254060  0.89678527  0.83909695    -0.12700
C578        C  0.58743954  0.90144809  0.84998918     0.04700
C579        C  0.53027044  0.87629415  0.79172943     0.27100
C580        C  0.51638221  0.89289828  0.76613136    -0.13400
C581        C  0.49198829  0.88712508  0.75358671     0.05200
C582        C  0.48194235  0.86357075  0.76312584    -0.09300
C583        C  0.49576463  0.84740119  0.79080433     0.06000
C584        C  0.51952084  0.85413469  0.80574759    -0.13700
Br585      Br  0.53630745  0.91063283  0.87458905    -0.05800
Br586      Br  0.62476468  0.85411440  0.75956841    -0.00200
Br587      Br  0.47254161  0.91237946  0.72477358     0.00300
Br588      Br  0.53811759  0.83259175  0.84437482    -0.04100
Br589      Br  0.59423785  0.92087547  0.90259671     0.00400
Br590      Br  0.56688829  0.85008038  0.72749060    -0.03400
Br591      Br  0.53141919  0.92310557  0.74635739    -0.04300
Br592      Br  0.48376281  0.81521849  0.80695188    -0.00300
C593        C  0.98386303  0.67885786  0.77674909     0.01100
C594        C  0.98966421  0.65435255  0.76535652     0.03900
C595        C  0.01365061  0.64830172  0.75135719    -0.12100
C596        C  0.03182625  0.66668370  0.74861426     0.23200
C597        C  0.02576721  0.69130154  0.75777896    -0.12700
C598        C  0.00186907  0.69742421  0.77198785     0.04700
C599        C  0.05774911  0.65998519  0.73912896     0.27100
C600        C  0.07401732  0.65497696  0.77467733    -0.13400
C601        C  0.09892165  0.64955467  0.76610755     0.05200
C602        C  0.10733620  0.64822519  0.72192783    -0.09300
C603        C  0.09107380  0.65327588  0.68636691     0.06000
C604        C  0.06632440  0.65935665  0.69500079    -0.13700
Br605      Br  0.05075174  0.71640794  0.75306302    -0.05800
Br606      Br  0.96488035  0.62897004  0.76917504    -0.00200
Br607      Br  0.12155224  0.64406664  0.81473585     0.00300
Br608      Br  0.04414485  0.66714410  0.64669084    -0.04100
Br609      Br  0.99485612  0.73094175  0.78908999     0.00400
Br610      Br  0.02206241  0.61469957  0.73767328    -0.03400
Br611      Br  0.06199267  0.65542406  0.83505013    -0.04300
Br612      Br  0.10300010  0.65282186  0.62593177    -0.00300
C613        C  0.85968803  0.76990549  0.85445213     0.01100
C614        C  0.86321120  0.78977538  0.82492890     0.03900
C615        C  0.84689502  0.80996620  0.82556934    -0.12100
C616        C  0.82654735  0.81011410  0.85466313     0.23200
C617        C  0.82361997  0.79081541  0.88537549    -0.12700
C618        C  0.84034553  0.77098345  0.88574904     0.04700
C619        C  0.80661547  0.82876095  0.84912682     0.27100
C620        C  0.80516678  0.84949279  0.87722835    -0.13400
C621        C  0.78536545  0.86623295  0.87287588     0.05200
C622        C  0.76703734  0.86240395  0.84004985    -0.09300
C623        C  0.76893046  0.84189824  0.81127672     0.06000
C624        C  0.78849995  0.82511431  0.81605078    -0.13700
Br625      Br  0.79568164  0.79082857  0.92497933    -0.05800
Br626      Br  0.88872782  0.78837278  0.78030997    -0.00200
Br627      Br  0.78252680  0.89339272  0.91384316     0.00300
Br628      Br  0.79021779  0.79656253  0.77788065    -0.04100
Br629      Br  0.83669769  0.74520895  0.92919064     0.00400
Br630      Br  0.85138862  0.83686756  0.78470243    -0.03400
Br631      Br  0.83005453  0.85450106  0.92230362    -0.04300
Br632      Br  0.74496875  0.83682285  0.76433886    -0.00300
C633        C  0.86849804  0.67274156  0.97987544     0.01100
C634        C  0.88492526  0.67188635  0.01671780     0.03900
C635        C  0.87569735  0.66882657  0.06000701    -0.12100
C636        C  0.85013009  0.66707307  0.06701024     0.23200
C637        C  0.83364893  0.66915719  0.03107777    -0.12700
C638        C  0.84268366  0.67172164  0.98754229     0.04700
C639        C  0.84062265  0.66172891  0.11200016     0.27100
C640        C  0.83745051  0.63717125  0.12530722    -0.13400
C641        C  0.82990714  0.63178636  0.16890796     0.05200
C642        C  0.82568750  0.65107805  0.19943862    -0.09300
C643        C  0.82732617  0.67573202  0.18495176     0.06000
C644        C  0.83501355  0.68101604  0.14142488    -0.13700
Br645      Br  0.79856808  0.66818082  0.04206185    -0.05800
Br646      Br  0.92009201  0.67609388  0.00941926    -0.00200
Br647      Br  0.82692135  0.59792420  0.18679088     0.00300
Br648      Br  0.83858548  0.71462619  0.12221656    -0.04100
Br649      Br  0.81917021  0.67239666  0.93904473     0.00400
Br650      Br  0.89803169  0.66699585  0.11018135    -0.03400
Br651      Br  0.84447441  0.61094066  0.08390945    -0.04300
Br652      Br  0.81852527  0.70241088  0.22435348    -0.00300
C653        C  0.87877451  0.70652622  0.69944317     0.01100
C654        C  0.89242374  0.69040443  0.67248820     0.03900
C655        C  0.88586354  0.68730031  0.62777894    -0.12100
C656        C  0.86546207  0.70013268  0.61029950     0.23200
C657        C  0.85243833  0.71707199  0.63674331    -0.12700
C658        C  0.85911629  0.72026671  0.68157577     0.04700
C659        C  0.85650904  0.69361883  0.56558237     0.27100
C660        C  0.86716345  0.70452070  0.52787621    -0.13400
C661        C  0.86254722  0.69454791  0.48556671     0.05200
C662        C  0.84703558  0.67393124  0.48127452    -0.09300
C663        C  0.83510427  0.66409112  0.51871252     0.06000
C664        C  0.83988754  0.67391492  0.56095801    -0.13700
Br665      Br  0.82497904  0.73494873  0.61182668    -0.05800
Br666      Br  0.91921598  0.67152924  0.69761755    -0.00200
Br667      Br  0.87924278  0.70760686  0.43419421     0.00300
Br668      Br  0.82506066  0.65934470  0.61293399    -0.04100
Br669      Br  0.84083122  0.74251850  0.71906255     0.00400
Br670      Br  0.90402054  0.66452860  0.59093592    -0.03400
Br671      Br  0.88929361  0.73198483  0.53488347    -0.04300
Br672      Br  0.81281126  0.63667690  0.51227249    -0.00300
C673        C  0.88407953  0.61083846  0.80978762     0.01100
C674        C  0.86635913  0.60709297  0.77565274     0.03900
C675        C  0.86084942  0.58313827  0.76052406    -0.12100
C676        C  0.87364844  0.56269614  0.77780884     0.23200
C677        C  0.89207431  0.56636464  0.81030551    -0.12700
C678        C  0.89706225  0.59016829  0.82673200     0.04700
C679        C  0.86780277  0.53738229  0.76149842     0.27100
C680        C  0.85355963  0.52130692  0.78768662    -0.13400
C681        C  0.84755886  0.49763766  0.77186219     0.05200
C682        C  0.85446874  0.49030051  0.72844475    -0.09300
C683        C  0.86892022  0.50645512  0.70234933     0.06000
C684        C  0.87616469  0.52950361  0.71946299    -0.13700
Br685      Br  0.91069480  0.53853661  0.83194163    -0.05800
Br686      Br  0.85084557  0.63467372  0.74650336    -0.00200
Br687      Br  0.83109252  0.47492422  0.81114267     0.00300
Br688      Br  0.89771419  0.55044663  0.68537874    -0.04100
Br689      Br  0.92127601  0.59373444  0.87368777     0.00400
Br690      Br  0.83567663  0.57818361  0.71573142    -0.03400
Br691      Br  0.84195908  0.53189537  0.84525438    -0.04300
Br692      Br  0.87758540  0.49818403  0.64181571    -0.00300
C693        C  0.99109039  0.36134921  0.24398288     0.01100
C694        C  0.01281643  0.36137805  0.21822170     0.03900
C695        C  0.03543017  0.36844481  0.23723901    -0.12100
C696        C  0.03663328  0.37521284  0.28239191     0.23200
C697        C  0.01516378  0.37442517  0.30875133    -0.12700
C698        C  0.99240047  0.36742816  0.28961081     0.04700
C699        C  0.06074849  0.38285844  0.30150730     0.27100
C700        C  0.07611280  0.36535922  0.32214328    -0.13400
C701        C  0.10033165  0.37170385  0.33462197     0.05200
C702        C  0.10949251  0.39542412  0.32558362    -0.09300
C703        C  0.09378197  0.41324117  0.30658915     0.06000
C704        C  0.06942629  0.40695960  0.29468600    -0.13700
Br705      Br  0.01704356  0.38315498  0.37084642    -0.05800
Br706      Br  0.01213267  0.35020837  0.15744805    -0.00200
Br707      Br  0.12075173  0.34805407  0.36531099     0.00300
Br708      Br  0.04815555  0.43096922  0.26706815    -0.04100
Br709      Br  0.96297549  0.36675044  0.32558935     0.00400
Br710      Br  0.06500844  0.36877529  0.20145206    -0.03400
Br711      Br  0.06424611  0.33238551  0.33152901    -0.04300
Br712      Br  0.10598653  0.44579753  0.29431925    -0.00300
C713        C  0.86708546  0.37622363  0.05673100     0.01100
C714        C  0.87024471  0.39987469  0.03802216     0.03900
C715        C  0.86040158  0.40507886  0.99591508    -0.12100
C716        C  0.84804405  0.38660019  0.97198616     0.23200
C717        C  0.84441866  0.36324811  0.99068741    -0.12700
C718        C  0.85366147  0.35807581  0.03327193     0.04700
C719        C  0.84205965  0.39049747  0.92483876     0.27100
C720        C  0.81773145  0.39575927  0.91139243    -0.13400
C721        C  0.81208586  0.39756380  0.86587435     0.05200
C722        C  0.83099115  0.39488984  0.83416894    -0.09300
C723        C  0.85547615  0.39040023  0.84803954     0.06000
C724        C  0.86090846  0.38774480  0.89324107    -0.13700
Br725      Br  0.82846934  0.33780439  0.95616118    -0.05800
Br726      Br  0.88845746  0.42534207  0.06882673    -0.00200
Br727      Br  0.77836170  0.40221166  0.84693422     0.00300
Br728      Br  0.89419983  0.37987916  0.91200761    -0.04100
Br729      Br  0.84981508  0.32530898  0.05689076     0.00400
Br730      Br  0.86509151  0.43706722  0.96945596    -0.03400
Br731      Br  0.79231852  0.40010658  0.95544655    -0.04300
Br732      Br  0.88208626  0.38887411  0.80591411    -0.00300
C733        C  0.88709180  0.33768297  0.33424867     0.01100
C734        C  0.88606448  0.31628087  0.36079656     0.03900
C735        C  0.87942753  0.31820330  0.40582142    -0.12100
C736        C  0.87326096  0.34123772  0.42372567     0.23200
C737        C  0.87460838  0.36256131  0.39762664    -0.12700
C738        C  0.88213230  0.36092162  0.35336210     0.04700
C739        C  0.86711277  0.34397796  0.47094516     0.27100
C740        C  0.84223261  0.34407398  0.48432950    -0.13400
C741        C  0.83590050  0.35360370  0.52622085     0.05200
C742        C  0.85450906  0.36317865  0.55393260    -0.09300
C743        C  0.87952489  0.36133227  0.54171473     0.06000
C744        C  0.88584456  0.35144319  0.50037158    -0.13700
Br745      Br  0.86629442  0.39422679  0.42292233    -0.05800
Br746      Br  0.89269098  0.28421252  0.33598403    -0.00200
Br747      Br  0.80185414  0.35525368  0.54433619     0.00300
Br748      Br  0.91997994  0.35024730  0.48201044    -0.04100
Br749      Br  0.88689926  0.39101745  0.32034055     0.00400
Br750      Br  0.87881014  0.28953779  0.44336235    -0.03400
Br751      Br  0.81694788  0.33297620  0.44375742    -0.04300
Br752      Br  0.90519290  0.37377202  0.58017856    -0.00300
C753        C  0.89149054  0.43213467  0.21562596     0.01100
C754        C  0.86993536  0.44417592  0.20013528     0.03900
C755        C  0.86479207  0.46835190  0.21363718    -0.12100
C756        C  0.87997765  0.48005873  0.24524216     0.23200
C757        C  0.90142144  0.46819462  0.26089703    -0.12700
C758        C  0.90767233  0.44463936  0.24494972     0.04700
C759        C  0.87201042  0.50389962  0.26451527     0.27100
C760        C  0.88255989  0.52617888  0.25012229    -0.13400
C761        C  0.87378238  0.54870118  0.26703736     0.05200
C762        C  0.85419867  0.54897243  0.29770635    -0.09300
C763        C  0.84381040  0.52668874  0.31228134     0.06000
C764        C  0.85282409  0.50421456  0.29605141    -0.13700
Br765      Br  0.92149350  0.48379753  0.30591394    -0.05800
Br766      Br  0.84700517  0.42795404  0.16037487    -0.00200
Br767      Br  0.88876035  0.57920261  0.24902164     0.00300
Br768      Br  0.83882880  0.47370727  0.31690595    -0.04100
Br769      Br  0.93774983  0.42926371  0.26551513     0.00400
Br770      Br  0.83659507  0.48554398  0.18938017    -0.03400
Br771      Br  0.90881601  0.52576966  0.20702223    -0.04300
Br772      Br  0.81689030  0.52683322  0.35398946    -0.00300
C773        C  0.73051740  0.07096173  0.09221109     0.01100
C774        C  0.75080753  0.05498163  0.10067117     0.03900
C775        C  0.75597975  0.03547347  0.07103188    -0.12100
C776        C  0.74099627  0.03167822  0.03334837     0.23200
C777        C  0.72274626  0.04905274  0.02240622    -0.12700
C778        C  0.71808372  0.06901269  0.05073491     0.04700
C779        C  0.74261469  0.00870038  0.00664259     0.27100
C780        C  0.75245811  0.00930418  0.96339753    -0.13400
C781        C  0.74649571  0.99062529  0.93263424     0.05200
C782        C  0.73179247  0.97043441  0.94602521    -0.09300
C783        C  0.72484300  0.96843153  0.99118075     0.06000
C784        C  0.72995157  0.98763450  0.02117099    -0.13700
Br785      Br  0.70265116  0.04458116  0.96986653    -0.05800
Br786      Br  0.77114554  0.05825152  0.15328683    -0.00200
Br787      Br  0.75548524  0.99510344  0.87106887     0.00300
Br788      Br  0.71771326  0.98598127  0.08132302    -0.04100
Br789      Br  0.69456025  0.09355472  0.03127670     0.00400
Br790      Br  0.78278322  0.01302288  0.08274965    -0.03400
Br791      Br  0.77226257  0.03703258  0.94568113    -0.04300
Br792      Br  0.70711391  0.93999839  0.01200269    -0.00300
C793        C  0.68233517  0.04685121  0.25778020     0.01100
C794        C  0.66771477  0.04514401  0.29629162     0.03900
C795        C  0.66201323  0.02192236  0.31412360    -0.12100
C796        C  0.66933985  0.00041036  0.29149469     0.23200
C797        C  0.68350903  0.00217757  0.25244111    -0.12700
C798        C  0.69039074  0.02531782  0.23618145     0.04700
C799        C  0.66078362  0.97588111  0.30624691     0.27100
C800        C  0.67726657  0.95973849  0.32767929    -0.13400
C801        C  0.67041002  0.93518984  0.33524586     0.05200
C802        C  0.64677742  0.92683006  0.32220855    -0.09300
C803        C  0.62979475  0.94343142  0.30306111     0.06000
C804        C  0.63690132  0.96781585  0.29465184    -0.13700
Br805      Br  0.69236305  0.97283751  0.21986660    -0.05800
Br806      Br  0.65397872  0.07444138  0.32241639    -0.00200
Br807      Br  0.69316516  0.91339462  0.36518661     0.00300
Br808      Br  0.61414692  0.99008982  0.26601040    -0.04100
Br809      Br  0.70959927  0.02751133  0.18252739     0.00400
Br810      Br  0.64383791  0.01945717  0.36894772    -0.03400
Br811      Br  0.70927305  0.97142404  0.34645748    -0.04300
Br812      Br  0.59703237  0.93273660  0.28671985    -0.00300
C813        C  0.85769384  0.27482321  0.18828054     0.01100
C814        C  0.83911311  0.27340261  0.22127270     0.03900
C815        C  0.82237080  0.25368801  0.22156964    -0.12100
C816        C  0.82433198  0.23479510  0.18977461     0.23200
C817        C  0.84315990  0.23575247  0.15752051    -0.12700
C818        C  0.85959159  0.25587825  0.15636287     0.04700
C819        C  0.80536299  0.21501136  0.18861343     0.27100
C820        C  0.80643426  0.19531164  0.21893134    -0.13400
C821        C  0.78700502  0.17809852  0.22079128     0.05200
C822        C  0.76655595  0.18021585  0.19160129    -0.09300
C823        C  0.76578849  0.19983639  0.16088230     0.06000
C824        C  0.78499806  0.21719937  0.15966947    -0.13700
Br825      Br  0.84587364  0.20966709  0.11433367    -0.05800
Br826      Br  0.83646978  0.29820985  0.26713838    -0.00200
Br827      Br  0.78735332  0.15333982  0.26674585     0.00300
Br828      Br  0.78279013  0.24497944  0.12002627    -0.04100
Br829      Br  0.88319077  0.25842869  0.10890397     0.00400
Br830      Br  0.79606152  0.25290513  0.26483486    -0.03400
Br831      Br  0.83396474  0.19283627  0.25961516    -0.04300
Br832      Br  0.73828676  0.20342120  0.12050081    -0.00300
C833        C  0.63851009  0.19781451  0.84320757     0.01100
C834        C  0.64571602  0.21664629  0.87265117     0.03900
C835        C  0.65160503  0.21103949  0.91702936    -0.12100
C836        C  0.65011206  0.18662314  0.93197171     0.23200
C837        C  0.64247641  0.16783190  0.90284154    -0.12700
C838        C  0.63689081  0.17338894  0.85838462     0.04700
C839        C  0.65663982  0.18058128  0.97833612     0.27100
C840        C  0.68073162  0.17268773  0.98879988    -0.13400
C841        C  0.68647479  0.16542586  0.03242767     0.05200
C842        C  0.66807096  0.16599403  0.06532813    -0.09300
C843        C  0.64434231  0.17496363  0.05530556     0.06000
C844        C  0.63854274  0.18206921  0.01168167    -0.13700
Br845      Br  0.63972656  0.13449971  0.92404365    -0.05800
Br846      Br  0.64880691  0.24982439  0.85182713    -0.00200
Br847      Br  0.71929945  0.15421781  0.04693166     0.00300
Br848      Br  0.60564780  0.19306034  0.99705824    -0.04100
Br849      Br  0.62689807  0.14748849  0.81834427     0.00400
Br850      Br  0.66212584  0.23659723  0.95739483    -0.03400
Br851      Br  0.70551644  0.17113729  0.94295288    -0.04300
Br852      Br  0.61990457  0.17765157  0.10152711    -0.00300
C853        C  0.66063831  0.18031923  0.55718236     0.01100
C854        C  0.64641922  0.17745802  0.51758998     0.03900
C855        C  0.65812513  0.17235598  0.47708922    -0.12100
C856        C  0.68394605  0.17102303  0.47496470     0.23200
C857        C  0.69832848  0.17489780  0.51315794    -0.12700
C858        C  0.68686339  0.17898832  0.55444555     0.04700
C859        C  0.69565985  0.16478749  0.43222036     0.27100
C860        C  0.69945825  0.13999224  0.42081711    -0.13400
C861        C  0.70585752  0.13366855  0.37700088     0.05200
C862        C  0.70759484  0.15223847  0.34444112    -0.09300
C863        C  0.70667570  0.17718732  0.35743627     0.06000
C864        C  0.70047312  0.18343165  0.40124391    -0.13700
Br865      Br  0.73386910  0.17397580  0.50835543    -0.05800
Br866      Br  0.61078924  0.18054257  0.51654751    -0.00200
Br867      Br  0.71094648  0.09960104  0.36200042     0.00300
Br868      Br  0.69688566  0.21743070  0.41828643    -0.04100
Br869      Br  0.70789208  0.18063577  0.60648417     0.00400
Br870      Br  0.63872635  0.16646519  0.42403115    -0.03400
Br871      Br  0.69392471  0.11472025  0.46460723    -0.04300
Br872      Br  0.71405727  0.20292674  0.31531981    -0.00300
C873        C  0.48386305  0.17718802  0.28543919     0.01100
C874        C  0.49227717  0.15257030  0.28674954     0.03900
C875        C  0.51697841  0.14690490  0.27644231    -0.12100
C876        C  0.53299457  0.16532185  0.26081074     0.23200
C877        C  0.52421268  0.18958321  0.25634891    -0.12700
C878        C  0.50006428  0.19569898  0.26995214     0.04700
C879        C  0.55897372  0.15906890  0.24875259     0.27100
C880        C  0.57868433  0.16594305  0.27690757    -0.13400
C881        C  0.60323900  0.16046039  0.26495231     0.05200
C882        C  0.60825824  0.14686401  0.22582573    -0.09300
C883        C  0.58831946  0.13915430  0.19858962     0.06000
C884        C  0.56393435  0.14591711  0.20933892    -0.13700
Br885      Br  0.54553653  0.21453805  0.23200931    -0.05800
Br886      Br  0.46978047  0.12611553  0.30025066    -0.00200
Br887      Br  0.62983488  0.17098758  0.30337839     0.00300
Br888      Br  0.53718538  0.13776129  0.16933316    -0.04100
Br889      Br  0.49031065  0.22983276  0.27023341     0.00400
Br890      Br  0.52922692  0.11396236  0.28537209    -0.03400
Br891      Br  0.57192562  0.18254562  0.33240504    -0.04300
Br892      Br  0.59401459  0.11995600  0.14545989    -0.00300
C893        C  0.35187084  0.99069134  0.23776755     0.01100
C894        C  0.37666159  0.99580331  0.24903385     0.03900
C895        C  0.38335412  0.01943363  0.26386094    -0.12100
C896        C  0.36537125  0.03803217  0.26715765     0.23200
C897        C  0.34067670  0.03300568  0.25573004    -0.12700
C898        C  0.33394395  0.00947497  0.24073965     0.04700
C899        C  0.37226562  0.06301656  0.28241262     0.27100
C900        C  0.37158598  0.06880938  0.32809085    -0.13400
C901        C  0.37658894  0.09290731  0.34241168     0.05200
C902        C  0.38224035  0.11123195  0.31106726    -0.09300
C903        C  0.38314049  0.10542774  0.26547451     0.06000
C904        C  0.37827624  0.08129692  0.25111681    -0.13700
Br905      Br  0.31617825  0.05866928  0.25996897    -0.05800
Br906      Br  0.40149367  0.97049498  0.24450302    -0.00200
Br907      Br  0.37552073  0.10094269  0.40490911     0.00300
Br908      Br  0.37968009  0.07320132  0.18866962    -0.04100
Br909      Br  0.30049203  0.00376624  0.22081101     0.00400
Br910      Br  0.41716853  0.02655376  0.27935529    -0.03400
Br911      Br  0.36357388  0.04367477  0.37080165    -0.04300
Br912      Br  0.39065587  0.13076178  0.22293165    -0.00300
C913        C  0.34578909  0.86616882  0.05264233     0.01100
C914        C  0.32765928  0.87125144  0.02028795     0.03900
C915        C  0.33042337  0.86208907  0.97680689    -0.12100
C916        C  0.35159810  0.84838530  0.96567753     0.23200
C917        C  0.36888528  0.84205879  0.99881706    -0.12700
C918        C  0.36594353  0.85091790  0.04235535     0.04700
C919        C  0.35781025  0.84391762  0.91850413     0.27100
C920        C  0.35132891  0.82171484  0.89736486    -0.13400
C921        C  0.35904157  0.81718584  0.85343056     0.05200
C922        C  0.37327241  0.83483075  0.83095581    -0.09300
C923        C  0.37945898  0.85714426  0.85191813     0.06000
C924        C  0.37168010  0.86171306  0.89559176    -0.13700
Br925      Br  0.39733423  0.82246691  0.98369307    -0.05800
Br926      Br  0.30001901  0.89208304  0.03496956    -0.00200
Br927      Br  0.34969867  0.78723593  0.82352553     0.00300
Br928      Br  0.38025329  0.89229595  0.92440868    -0.04100
Br929      Br  0.39010472  0.84321367  0.08751703     0.00400
Br930      Br  0.30594586  0.86914838  0.93191256    -0.03400
Br931      Br  0.33194837  0.79771284  0.92870101    -0.04300
Br932      Br  0.39913977  0.88124496  0.82101512    -0.00300
C933        C  0.33094911  0.89110516  0.33238494     0.01100
C934        C  0.31880699  0.87199780  0.35479047     0.03900
C935        C  0.32607573  0.86578227  0.39821254    -0.12100
C936        C  0.34545779  0.87874424  0.41896943     0.23200
C937        C  0.35701777  0.89842032  0.39697601    -0.12700
C938        C  0.34967136  0.90462922  0.35369370     0.04700
C939        C  0.35372358  0.87178996  0.46398351     0.27100
C940        C  0.34581695  0.88565326  0.50082310    -0.13400
C941        C  0.35460133  0.87991326  0.54344703     0.05200
C942        C  0.37078388  0.85993569  0.54935162    -0.09300
C943        C  0.37850038  0.84585815  0.51268311     0.06000
C944        C  0.37010949  0.85191012  0.46980808    -0.13700
Br945      Br  0.38350537  0.91624782  0.42553021    -0.05800
Br946      Br  0.29294066  0.85386775  0.32516398    -0.00200
Br947      Br  0.34513629  0.89998790  0.59353594     0.00300
Br948      Br  0.38158110  0.83356015  0.41891513    -0.04100
Br949      Br  0.36566209  0.93121661  0.32288919     0.00400
Br950      Br  0.31017521  0.83904236  0.42878673    -0.03400
Br951      Br  0.32336324  0.91283290  0.49257894    -0.04300
Br952      Br  0.40105267  0.81883350  0.52131634    -0.00300
C953        C  0.53985879  0.86456957  0.28225705     0.01100
C954        C  0.52334933  0.88022871  0.30550562     0.03900
C955        C  0.49915289  0.88389444  0.28945980    -0.12100
C956        C  0.49122954  0.87228099  0.25006804     0.23200
C957        C  0.50766726  0.85716622  0.22632340    -0.12700
C958        C  0.53202551  0.85374374  0.24173267     0.04700
C959        C  0.46578014  0.87669712  0.23299085     0.27100
C960        C  0.44610964  0.86178281  0.24694215    -0.13400
C961        C  0.42175644  0.86698063  0.23306545     0.05200
C962        C  0.41694434  0.88691137  0.20368939    -0.09300
C963        C  0.43714159  0.90114635  0.18835270     0.06000
C964        C  0.46125382  0.89633478  0.20378076    -0.13700
Br965      Br  0.49637762  0.84052425  0.17332133    -0.05800
Br966      Br  0.53283853  0.89598668  0.36066515    -0.00200
Br967      Br  0.39540340  0.84711081  0.25707801     0.00300
Br968      Br  0.48840643  0.91688153  0.18549330    -0.04100
Br969      Br  0.55496982  0.83544386  0.20544963     0.00400
Br970      Br  0.47624038  0.90415666  0.32226068    -0.03400
Br971      Br  0.45278090  0.83434708  0.28586264    -0.04300
Br972      Br  0.43269420  0.92651198  0.14414624    -0.00300
C973        C  0.05099361  0.73888456  0.12017792     0.01100
C974        C  0.02592758  0.73303048  0.12646956     0.03900
C975        C  0.00932629  0.73427019  0.09053765    -0.12100
C976        C  0.01764381  0.74212976  0.04857731     0.23200
C977        C  0.04191976  0.75095286  0.04380382    -0.12700
C978        C  0.05863746  0.74919424  0.07961280     0.04700
C979        C  0.00221850  0.73727272  0.00870700     0.27100
C980        C  0.00518612  0.71485548  0.98591001    -0.13400
C981        C  0.98907701  0.70863235  0.95106083     0.05200
C982        C  0.96941980  0.72448087  0.93956689    -0.09300
C983        C  0.96749549  0.74767030  0.96027305     0.06000
C984        C  0.98388580  0.75400911  0.99500736    -0.13700
Br985      Br  0.05267280  0.76327904  0.98704531    -0.05800
Br986      Br  0.01482527  0.72099940  0.18316046    -0.00200
Br987      Br  0.99464922  0.67863863  0.91799396     0.00300
Br988      Br  0.98096568  0.78517747  0.02494893    -0.04100
Br989      Br  0.09230516  0.75960539  0.07271316     0.00400
Br990      Br  0.97592431  0.72257484  0.09743713    -0.03400
Br991      Br  0.03086629  0.69218415  0.00358520    -0.04300
Br992      Br  0.94199472  0.77030232  0.94238448    -0.00300
C993        C  0.03747300  0.68314403  0.27932612     0.01100
C994        C  0.02114542  0.70102856  0.29694247     0.03900
C995        C  0.99729939  0.69409711  0.31026573    -0.12100
C996        C  0.99000138  0.66936852  0.30749930     0.23200
C997        C  0.00696070  0.65126811  0.29418884    -0.12700
C998        C  0.03074878  0.65807548  0.28057046     0.04700
C999        C  0.96423943  0.66244799  0.31737321     0.27100
C1000       C  0.95764605  0.65523506  0.36064916    -0.13400
C1001       C  0.93316973  0.64844872  0.36979228     0.05200
C1002       C  0.91523873  0.64916327  0.33567428    -0.09300
C1003       C  0.92191935  0.65620706  0.29228885     0.06000
C1004       C  0.94639314  0.66296015  0.28319254    -0.13700
Br1005     Br  0.99712004  0.61721753  0.29307172    -0.05800
Br1006     Br  0.03032869  0.73526825  0.30121733    -0.00200
Br1007     Br  0.92408900  0.63905430  0.42942088     0.00300
Br1008     Br  0.95551091  0.67326469  0.22407871    -0.04100
Br1009     Br  0.05434520  0.63281627  0.26538304     0.00400
Br1010     Br  0.97396539  0.71855788  0.33019471    -0.03400
Br1011     Br  0.98215270  0.65529526  0.40738486    -0.04300
Br1012     Br  0.89775727  0.65566983  0.24495343    -0.00300
C1013       C  0.15993081  0.77760408  0.20450596     0.01100
C1014       C  0.16803267  0.78959695  0.24348151     0.03900
C1015       C  0.18542715  0.80866520  0.24073067    -0.12100
C1016       C  0.19379161  0.81656883  0.19879062     0.23200
C1017       C  0.18392100  0.80603558  0.15969836    -0.12700
C1018       C  0.16753407  0.78609362  0.16258894     0.04700
C1019       C  0.21537936  0.83320852  0.19579287     0.27100
C1020       C  0.21283699  0.85869131  0.20190864    -0.13400
C1021       C  0.23383766  0.87401376  0.20131480     0.05200
C1022       C  0.25746491  0.86399213  0.19161477    -0.09300
C1023       C  0.25939579  0.83837271  0.18272887     0.06000
C1024       C  0.23870758  0.82307629  0.18701955    -0.13700
Br1025     Br  0.19408147  0.81811144  0.10233688    -0.05800
Br1026     Br  0.15630887  0.77892953  0.30081715    -0.00200
Br1027     Br  0.22962343  0.90820684  0.21682353     0.00300
Br1028     Br  0.24238394  0.78778614  0.18240698    -0.04100
Br1029     Br  0.15655042  0.76953486  0.10943978     0.00400
Br1030     Br  0.19925700  0.82257550  0.29440464    -0.03400
Br1031     Br  0.18041861  0.87233155  0.21186662    -0.04300
Br1032     Br  0.28977738  0.82342441  0.16224196    -0.00300
C1033       C  0.15083968  0.67748362  0.07014727     0.01100
C1034       C  0.17481274  0.66731858  0.06759052     0.03900
C1035       C  0.18469428  0.66062704  0.02610037    -0.12100
C1036       C  0.17047699  0.66343627  0.98720620     0.23200
C1037       C  0.14645763  0.67321953  0.98964227    -0.12700
C1038       C  0.13665016  0.68031053  0.03096393     0.04700
C1039       C  0.18076629  0.65643390  0.94341789     0.27100
C1040       C  0.19442866  0.67366375  0.91895844    -0.13400
C1041       C  0.20229207  0.66792017  0.87569429     0.05200
C1042       C  0.19591992  0.64521578  0.85616217    -0.09300
C1043       C  0.18299979  0.62759185  0.88140029     0.06000
C1044       C  0.17572830  0.63311402  0.92520752    -0.13700
Br1045     Br  0.12706061  0.67687607  0.93602817    -0.05800
Br1046     Br  0.19352833  0.66060491  0.12103135    -0.00200
Br1047     Br  0.22214588  0.69108405  0.84357656     0.00300
Br1048     Br  0.15802980  0.60918912  0.95996421    -0.04100
Br1049     Br  0.10395868  0.69435488  0.03326638     0.00400
Br1050     Br  0.21764805  0.64736150  0.02228050    -0.03400
Br1051     Br  0.20145330  0.70551753  0.94430782    -0.04300
Br1052     Br  0.17339892  0.59668327  0.85506966    -0.00300
C1053       C  0.14492445  0.70640359  0.35336244     0.01100
C1054       C  0.16942559  0.71010995  0.36810624     0.03900
C1055       C  0.17625205  0.70364521  0.41174493    -0.12100
C1056       C  0.15883014  0.69281486  0.44020435     0.23200
C1057       C  0.13429540  0.68955358  0.42592816    -0.12700
C1058       C  0.12727771  0.69652331  0.38276882     0.04700
C1059       C  0.16628234  0.68371789  0.48457764     0.27100
C1060       C  0.17644313  0.66003886  0.48877709    -0.13400
C1061       C  0.18075424  0.65007788  0.53117765     0.05200
C1062       C  0.17429263  0.66359164  0.56965089    -0.09300
C1063       C  0.16495553  0.68777851  0.56521322     0.06000
C1064       C  0.16122211  0.69783070  0.52268577    -0.13700
Br1065     Br  0.11056833  0.67444520  0.46515851    -0.05800
Br1066     Br  0.19375294  0.72384183  0.32860635    -0.00200
Br1067     Br  0.19618885  0.61815897  0.53596773     0.00300
Br1068     Br  0.14820629  0.73065461  0.51615667    -0.04100
Br1069     Br  0.09388155  0.69050063  0.36333356     0.00400
Br1070     Br  0.20950198  0.70912726  0.43263440    -0.03400
Br1071     Br  0.18361250  0.64093450  0.43617425    -0.04300
Br1072     Br  0.15537149  0.70684335  0.61668087    -0.00300
C1073       C  0.17414550  0.49799888  0.29258489     0.01100
C1074       C  0.18672382  0.50987242  0.25725282     0.03900
C1075       C  0.17902545  0.53331262  0.24268350    -0.12100
C1076       C  0.15814126  0.54459098  0.26155137     0.23200
C1077       C  0.14500402  0.53256595  0.29522057    -0.12700
C1078       C  0.15361963  0.51015183  0.31240748     0.04700
C1079       C  0.15103122  0.57002381  0.24897904     0.27100
C1080       C  0.15771715  0.58974462  0.27698159    -0.13400
C1081       C  0.15019648  0.61378330  0.26663416     0.05200
C1082       C  0.13648473  0.61838235  0.22752932    -0.09300
C1083       C  0.12971474  0.59860844  0.19953602     0.06000
C1084       C  0.13673170  0.57444578  0.21057529    -0.13700
Br1085     Br  0.11514439  0.54730275  0.31820220    -0.05800
Br1086     Br  0.21450796  0.49467484  0.22796458    -0.00200
Br1087     Br  0.15755926  0.64014588  0.30759390     0.00300
Br1088     Br  0.12655145  0.54728069  0.17354619    -0.04100
Br1089     Br  0.13855065  0.49852188  0.36678071     0.00400
Br1090     Br  0.19723994  0.55042686  0.19719428    -0.03400
Br1091     Br  0.17704549  0.58369488  0.32996886    -0.04300
Br1092     Br  0.11179146  0.60461150  0.14499232    -0.00300
C1093       C  0.37762141  0.92186269  0.70548274     0.01100
C1094       C  0.39074612  0.94246818  0.68908272     0.03900
C1095       C  0.38464476  0.96635129  0.70345816    -0.12100
C1096       C  0.36443330  0.97012486  0.73189569     0.23200
C1097       C  0.35009421  0.94997905  0.74551859    -0.12700
C1098       C  0.35689702  0.92589641  0.73334122     0.04700
C1099       C  0.35898168  0.99511428  0.74947011     0.27100
C1100       C  0.36803566  0.00202868  0.79157717    -0.13400
C1101       C  0.36204710  0.02514324  0.80967867     0.05200
C1102       C  0.34779490  0.04216451  0.78472653    -0.09300
C1103       C  0.33948205  0.03534620  0.74169710     0.06000
C1104       C  0.34462530  0.01174474  0.72464278    -0.13700
Br1105     Br  0.32120157  0.95563487  0.78158956    -0.05800
Br1106     Br  0.41609470  0.93864306  0.64451270    -0.00200
Br1107     Br  0.37220054  0.03220296  0.87011108     0.00300
Br1108     Br  0.33183552  0.00189094  0.66731727    -0.04100
Br1109     Br  0.33821978  0.89884357  0.75752810     0.00400
Br1110     Br  0.40431372  0.99407144  0.68514049    -0.03400
Br1111     Br  0.38866673  0.97947158  0.82450964    -0.04300
Br1112     Br  0.32216292  0.05846854  0.70453627    -0.00300
C1113       C  0.28542039  0.06555942  0.93099708     0.01100
C1114       C  0.28219057  0.07305520  0.97544849     0.03900
C1115       C  0.27759275  0.05540895  0.00861854    -0.12100
C1116       C  0.27725876  0.03022083  0.99740742     0.23200
C1117       C  0.27735526  0.02316768  0.95224323    -0.12700
C1118       C  0.28113337  0.04091717  0.91901310     0.04700
C1119       C  0.28378796  0.01165265  0.03171696     0.27100
C1120       C  0.30866057  0.00985749  0.04510936    -0.13400
C1121       C  0.31604814  0.99155587  0.07501436     0.05200
C1122       C  0.29905295  0.97360003  0.08950511    -0.09300
C1123       C  0.27398638  0.97560389  0.07684793     0.06000
C1124       C  0.26629157  0.99495953  0.04868448    -0.13700
Br1125     Br  0.27572771  0.98885830  0.93635462    -0.05800
Br1126     Br  0.28664226  0.10712195  0.99116409    -0.00200
Br1127     Br  0.34939978  0.99245460  0.09805703     0.00300
Br1128     Br  0.23197708  0.99869861  0.03305149    -0.04100
Br1129     Br  0.28324435  0.03113898  0.85744051     0.00400
Br1130     Br  0.27513454  0.06520926  0.07012310    -0.03400
Br1131     Br  0.33311285  0.03209946  0.02123538    -0.04300
Br1132     Br  0.25047668  0.95132883  0.09614654    -0.00300
C1133       C  0.37757809  0.20632071  0.19389841     0.01100
C1134       C  0.35355401  0.19978855  0.17943356     0.03900
C1135       C  0.34943250  0.19312466  0.13495578    -0.12100
C1136       C  0.36881000  0.19448642  0.10416083     0.23200
C1137       C  0.39170610  0.20444834  0.11686322    -0.12700
C1138       C  0.39629431  0.21020749  0.16180003     0.04700
C1139       C  0.36562735  0.18337190  0.05965929     0.27100
C1140       C  0.37310502  0.15894056  0.05268591    -0.13400
C1141       C  0.36863724  0.14740201  0.01162291     0.05200
C1142       C  0.35615164  0.16024682  0.97727782    -0.09300
C1143       C  0.34881856  0.18499777  0.98461511     0.06000
C1144       C  0.35390391  0.19652322  0.02551618    -0.13700
Br1145     Br  0.41704428  0.20889656  0.07262295    -0.05800
Br1146     Br  0.32585379  0.20056251  0.21982751    -0.00200
Br1147     Br  0.38082021  0.11431915  0.00309021     0.00300
Br1148     Br  0.34459528  0.23034478  0.03551425    -0.04100
Br1149     Br  0.42869853  0.22196850  0.17826739     0.00400
Br1150     Br  0.31761296  0.18067243  0.11654388    -0.03400
Br1151     Br  0.38941919  0.14123035  0.10001397    -0.04300
Br1152     Br  0.33041256  0.20329124  0.94055975    -0.00300
C1153       C  0.31944070  0.15146151  0.69457349     0.10700
C1154       C  0.30963158  0.13620632  0.66040251     0.03900
C1155       C  0.31622395  0.14021938  0.61580048    -0.12100
C1156       C  0.32963739  0.16128686  0.60414306     0.23200
C1157       C  0.33552060  0.17885196  0.63676033    -0.12700
C1158       C  0.33158244  0.17362306  0.68199674     0.04700
C1159       C  0.33978369  0.16407175  0.55871101     0.27100
C1160       C  0.36505702  0.15973488  0.55181026    -0.13400
C1161       C  0.37562661  0.16407578  0.50998021     0.05200
C1162       C  0.36053210  0.17123108  0.47340136    -0.09300
C1163       C  0.33483618  0.17483994  0.48045941     0.06000
C1164       C  0.32476028  0.17193120  0.52328253    -0.13700
Br1165     Br  0.35012153  0.20968416  0.61877515    -0.05800
Br1166     Br  0.28544338  0.11115623  0.67290910    -0.00200
Br1167     Br  0.41120521  0.16168147  0.50549676     0.00300
Br1168     Br  0.29036578  0.17909342  0.53400036    -0.04100
Br1169     Br  0.34444464  0.19711853  0.72469580     0.00400
Br1170     Br  0.30803134  0.11613525  0.57090115    -0.03400
Br1171     Br  0.38533987  0.14794954  0.60047946    -0.04300
Br1172     Br  0.31255607  0.18274697  0.43214985    -0.00300
C1173       C  0.41396738  0.14179203  0.81630820     0.01100
C1174       C  0.42290479  0.16618884  0.81608387     0.03900
C1175       C  0.44725493  0.17115194  0.80269158    -0.12100
C1176       C  0.46302839  0.15183055  0.78998762     0.23200
C1177       C  0.45445733  0.12740766  0.79136858    -0.12700
C1178       C  0.43004163  0.12234507  0.80469693     0.04700
C1179       C  0.48827501  0.15750840  0.77354559     0.27100
C1180       C  0.49233051  0.16015306  0.72759061    -0.13400
C1181       C  0.51562622  0.16746229  0.71181898     0.05200
C1182       C  0.53518637  0.17225851  0.74211208    -0.09300
C1183       C  0.53118127  0.16902248  0.78816227     0.06000
C1184       C  0.50779154  0.16168800  0.80374841    -0.13700
Br1185     Br  0.47615442  0.10099902  0.77397487    -0.05800
Br1186     Br  0.40234877  0.19292792  0.83646265    -0.00200
Br1187     Br  0.51978516  0.17224682  0.64852962     0.00300
Br1188     Br  0.50217668  0.15768173  0.86663285    -0.04100
Br1189     Br  0.41856270  0.08878791  0.80523419     0.00400
Br1190     Br  0.45907964  0.20457753  0.80108490    -0.03400
Br1191     Br  0.46549132  0.15449253  0.68631307    -0.04300
Br1192     Br  0.55785116  0.17377627  0.83002192    -0.00300
C1193       C  0.91599423  0.38531259  0.70234978     0.01100
C1194       C  0.93212685  0.40434053  0.71585003     0.03900
C1195       C  0.95631076  0.39872544  0.72959234    -0.12100
C1196       C  0.96468625  0.37425442  0.72905192     0.23200
C1197       C  0.94893261  0.35532514  0.71456471    -0.12700
C1198       C  0.92459775  0.36074563  0.70147460     0.04700
C1199       C  0.98940399  0.36825336  0.74721188     0.27100
C1200       C  0.01007829  0.36681761  0.71905067    -0.13400
C1201       C  0.03352211  0.36131196  0.73687506     0.05200
C1202       C  0.03637111  0.35765858  0.78309608    -0.09300
C1203       C  0.01562373  0.35999288  0.81136829     0.06000
C1204       C  0.99215629  0.36458252  0.79323480    -0.13700
Br1205     Br  0.96065150  0.32183365  0.71404298    -0.05800
Br1206     Br  0.92091815  0.43800058  0.71869957    -0.00200
Br1207     Br  0.06191244  0.36031726  0.69832640     0.00300
Br1208     Br  0.96341691  0.36529064  0.83120865    -0.04100
Br1209     Br  0.90347033  0.33426047  0.68160739     0.00400
Br1210     Br  0.97780098  0.42436872  0.75133342    -0.03400
Br1211     Br  0.00606204  0.37239723  0.65611247    -0.04300
Br1212     Br  0.01874762  0.35669128  0.87514204    -0.00300
C1213       C  0.05820996  0.29273321  0.92479899     0.01100
C1214       C  0.06507805  0.28762684  0.96889933     0.03900
C1215       C  0.04680745  0.28523293  0.00160432    -0.12100
C1216       C  0.02176812  0.28708372  0.98936113     0.23200
C1217       C  0.01506221  0.28742538  0.94404260    -0.12700
C1218       C  0.03340983  0.29003057  0.91153228     0.04700
C1219       C  0.00352204  0.29523365  0.02265443     0.27100
C1220       C  0.98878705  0.27843350  0.04586386    -0.13400
C1221       C  0.97097450  0.28697248  0.07634711     0.05200
C1222       C  0.96729827  0.31258829  0.08253495    -0.09300
C1223       C  0.98187837  0.32937216  0.05731313     0.06000
C1224       C  0.00044289  0.32057215  0.02915342    -0.13700
Br1225     Br  0.98067701  0.28803044  0.92727468    -0.05800
Br1226     Br  0.09943787  0.28429806  0.98375881    -0.00200
Br1227     Br  0.95122027  0.26311127  0.10737867     0.00300
Br1228     Br  0.02253740  0.34341449  0.99997720    -0.04100
Br1229     Br  0.02436945  0.29236070  0.84952283     0.00400
Br1230     Br  0.05592773  0.28301427  0.06346950    -0.03400
Br1231     Br  0.99341995  0.24376059  0.03565503    -0.04300
Br1232     Br  0.97785553  0.36484467  0.06002454    -0.00300
C1233       C  0.16258903  0.26138500  0.84685891     0.01100
C1234       C  0.16767145  0.24572653  0.81047673     0.03900
C1235       C  0.18553352  0.22710862  0.81480043    -0.12100
C1236       C  0.19751280  0.22336337  0.85589386     0.23200
C1237       C  0.19043875  0.23713500  0.89339777    -0.12700
C1238       C  0.17313859  0.25624053  0.88885907     0.04700
C1239       C  0.21933385  0.20695934  0.85812967     0.27100
C1240       C  0.21650078  0.18150911  0.86410584    -0.13400
C1241       C  0.23721776  0.16589323  0.86205736     0.05200
C1242       C  0.26083288  0.17566737  0.85273263    -0.09300
C1243       C  0.26360207  0.20142882  0.84796649     0.06000
C1244       C  0.24296532  0.21695440  0.85149892    -0.13700
Br1245     Br  0.20561779  0.23064718  0.95028961    -0.05800
Br1246     Br  0.15168172  0.25057025  0.75373021    -0.00200
Br1247     Br  0.23310172  0.13129854  0.87371536     0.00300
Br1248     Br  0.24683451  0.25212451  0.84604003    -0.04100
Br1249     Br  0.16397815  0.27544569  0.94025204     0.00400
Br1250     Br  0.19516852  0.20796690  0.76355574    -0.03400
Br1251     Br  0.18405706  0.16822234  0.87452057    -0.04300
Br1252     Br  0.29506179  0.21591161  0.83285517    -0.00300
C1253       C  0.15542939  0.36106079  0.98258344     0.01100
C1254       C  0.17930872  0.37178086  0.98464164     0.03900
C1255       C  0.18941946  0.37884365  0.02590706    -0.12100
C1256       C  0.17627708  0.37453994  0.06532561     0.23200
C1257       C  0.15290277  0.36336188  0.06366766    -0.12700
C1258       C  0.14215679  0.35729654  0.02249602     0.04700
C1259       C  0.18621484  0.38291718  0.10869428     0.27100
C1260       C  0.20257365  0.36790235  0.13290727    -0.13400
C1261       C  0.20967518  0.37464929  0.17628793     0.05200
C1262       C  0.19963993  0.39593718  0.19613532    -0.09300
C1263       C  0.18371179  0.41125889  0.17131364     0.06000
C1264       C  0.17757829  0.40505608  0.12725481    -0.13700
Br1265     Br  0.13551700  0.35661852  0.11834104    -0.05800
Br1266     Br  0.19786628  0.37888506  0.93127683    -0.00200
Br1267     Br  0.23323288  0.35476273  0.20838076     0.00300
Br1268     Br  0.15645314  0.42630107  0.09258351    -0.04100
Br1269     Br  0.10905141  0.34426292  0.02201101     0.00400
Br1270     Br  0.22090046  0.39538777  0.02869871    -0.03400
Br1271     Br  0.21425367  0.33755973  0.10722381    -0.04300
Br1272     Br  0.16799978  0.43927502  0.19879626    -0.00300
C1273       C  0.17112821  0.38030745  0.48002132     0.01100
C1274       C  0.15008158  0.38690800  0.50475856     0.03900
C1275       C  0.14606962  0.37630049  0.54651175    -0.12100
C1276       C  0.16262667  0.35853289  0.56278872     0.23200
C1277       C  0.18315416  0.35124170  0.53750069    -0.12700
C1278       C  0.18762233  0.36236852  0.49626799     0.04700
C1279       C  0.15953517  0.34926958  0.60830157     0.27100
C1280       C  0.17082661  0.36193328  0.64352838    -0.13400
C1281       C  0.16611105  0.35500529  0.68755983     0.05200
C1282       C  0.14933795  0.33547471  0.69645661    -0.09300
C1283       C  0.13966715  0.32161287  0.66037734     0.06000
C1284       C  0.14459548  0.32875164  0.61643037    -0.13700
Br1285     Br  0.20540556  0.32656190  0.56027188    -0.05800
Br1286     Br  0.12620786  0.40977251  0.48090408    -0.00200
Br1287     Br  0.18276467  0.37347958  0.73397765     0.00300
Br1288     Br  0.13049749  0.31092564  0.56690875    -0.04100
Br1289     Br  0.21711481  0.35410548  0.46365050     0.00400
Br1290     Br  0.11835041  0.38658575  0.58225819    -0.03400
Br1291     Br  0.19205076  0.38963913  0.63085783    -0.04300
Br1292     Br  0.12078439  0.29201443  0.66993722    -0.00300
C1293       C  0.13921999  0.42025920  0.82342961     0.01100
C1294       C  0.14709638  0.43682013  0.85662367     0.03900
C1295       C  0.15375155  0.46097084  0.84525095    -0.12100
C1296       C  0.15215234  0.46882103  0.80070191     0.23200
C1297       C  0.14389494  0.45236561  0.76752302    -0.12700
C1298       C  0.13725480  0.42815687  0.77892714     0.04700
C1299       C  0.15924430  0.49436209  0.78877821     0.27100
C1300       C  0.14132160  0.51308460  0.78758013    -0.13400
C1301       C  0.14786898  0.53711127  0.77473525     0.05200
C1302       C  0.17259529  0.54265140  0.76337607    -0.09300
C1303       C  0.19073388  0.52387347  0.76649592     0.06000
C1304       C  0.18394604  0.49985325  0.77868910    -0.13700
Br1305     Br  0.14205056  0.46302503  0.70643140    -0.05800
Br1306     Br  0.14853502  0.42639267  0.91786822    -0.00200
Br1307     Br  0.12283719  0.56238135  0.77405386     0.00300
Br1308     Br  0.20834597  0.47397935  0.78018836    -0.04100
Br1309     Br  0.12453281  0.40612734  0.73405219     0.00400
Br1310     Br  0.16547426  0.48328084  0.89051401    -0.03400
Br1311     Br  0.10767241  0.50547929  0.80320960    -0.04300
Br1312     Br  0.22484702  0.52996429  0.75124039    -0.00300
loop_ 
_geom_bond_atom_site_label_1 
_geom_bond_atom_site_label_2 
_geom_bond_distance 
_geom_bond_site_symmetry_2 
_ccdc_geom_bond_type 
Fe1          O17   2.050       .  S
Fe1           O7   2.050       .  S
Fe1          O14   2.080       .  S
Fe1           O6   2.046       .  S
Fe1          O12   1.972       .  S
Fe2           O5   2.074       .  S
Fe2           O9   2.059       .  S
Fe2          O13   2.069       .  S
Fe2          O18   2.050       .  S
Fe2          O12   1.970       .  S
Fe3          O21   2.063       .  S
Fe3           O8   2.069       .  S
Fe3          O15   2.077       .  S
Fe3           O4   2.065       .  S
Fe3          O12   1.980       .  S
O4           C11   1.269       .  A
O5           C19   1.277       .  A
O6           C11   1.262       .  A
O7           C10   1.266       .  A
O8           C20   1.266       .  A
O9           C22   1.263       .  A
C10          O15   1.269       .  A
C10        C1233   1.480       .  S
C11        C1282   1.486       .  S
O13          C16   1.272       .  A
O14          C16   1.274       .  A
C16        C1293   1.476       .  S
O17          C22   1.261       .  A
O18          C20   1.261       .  A
C19          O21   1.271       .  A
C19        C1213   1.469       .  S
C20        C1202   1.481       .  S
C22        C1253   1.485       .  S
Fe23         O39   2.057       .  S
Fe23         O29   2.072       .  S
Fe23         O36   2.071       .  S
Fe23         O28   2.049       .  S
Fe23         O34   1.938       .  S
Fe24         O27   2.059       .  S
Fe24         O31   2.098       .  S
Fe24         O35   2.059       .  S
Fe24         O40   2.076       .  S
Fe24         O34   1.930       .  S
Fe25         O43   2.096       .  S
Fe25         O30   2.070       .  S
Fe25         O37   2.070       .  S
Fe25         O26   2.103       .  S
Fe25         O34   1.943       .  S
O26          C33   1.278       .  A
O27          C41   1.269       .  A
O28          C33   1.268       .  A
O29          C32   1.268       .  A
O30          C42   1.271       .  A
O31          C44   1.277       .  A
C32          O37   1.267       .  A
C32        C1153   1.499       .  S
C33        C1242   1.486       .  S
O35          C38   1.266       .  A
O36          C38   1.266       .  A
C38        C1142   1.486       .  S
O39          C44   1.272       .  A
O40          C42   1.273       .  A
C41          O43   1.276       .  A
C41        C1102   1.494       .  S
C42        C1113   1.474       .  S
C44        C1173   1.486       .  S
Fe45         O61   2.058       .  S
Fe45         O51   2.067       .  S
Fe45         O58   2.079       .  S
Fe45         O50   2.049       .  S
Fe45         O56   1.961       .  S
Fe46         O49   2.049       .  S
Fe46         O53   2.071       .  S
Fe46         O57   2.059       .  S
Fe46         O62   2.065       .  S
Fe46         O56   1.960       .  S
Fe47         O65   2.097       .  S
Fe47         O52   2.050       .  S
Fe47         O59   2.060       .  S
Fe47         O48   2.084       .  S
Fe47         O56   1.970       .  S
O48          C55   1.274       .  A
O49          C63   1.269       .  A
O50          C55   1.268       .  A
O51          C54   1.268       .  A
O52          C64   1.262       .  A
O53          C66   1.269       .  A
C54          O59   1.266       .  A
C54        C1013   1.470       .  S
C55        C1053   1.476       .  S
O57          C60   1.268       .  A
O58          C60   1.271       .  A
C60        C1082   1.479       .  S
O61          C66   1.268       .  A
O62          C64   1.267       .  A
C63          O65   1.276       .  A
C63         C973   1.473       .  S
C64         C993   1.482       .  S
C66        C1033   1.478       .  S
Fe67         O83   2.083       .  S
Fe67         O73   2.029       .  S
Fe67         O80   2.048       .  S
Fe67         O72   2.067       .  S
Fe67         O78   1.946       .  S
Fe68         O71   2.070       .  S
Fe68         O75   2.068       .  S
Fe68         O79   2.090       .  S
Fe68         O84   2.059       .  S
Fe68         O78   1.929       .  S
Fe69         O87   2.063       .  S
Fe69         O74   2.088       .  S
Fe69         O81   2.099       .  S
Fe69         O70   2.076       .  S
Fe69         O78   1.946       .  S
O70          C77   1.268       .  A
O71          C85   1.270       .  A
O72          C77   1.265       .  A
O73          C76   1.268       .  A
O74          C86   1.274       .  A
O75          C88   1.265       .  A
C76          O81   1.278       .  A
C76         C933   1.459       .  S
C77        C1022   1.496       .  S
O79          C82   1.277       .  A
O80          C82   1.269       .  A
C82         C913   1.465       .  S
O83          C88   1.266       .  A
O84          C86   1.271       .  A
C85          O87   1.271       .  A
C85         C893   1.477       .  S
C86        C1122   1.484       .  S
C88         C962   1.499       .  S
Fe89        O105   2.073       .  S
Fe89         O95   2.043       .  S
Fe89        O102   2.055       .  S
Fe89         O94   2.060       .  S
Fe89        O100   1.970       .  S
Fe90         O93   2.051       .  S
Fe90         O97   2.063       .  S
Fe90        O101   2.071       .  S
Fe90        O106   2.055       .  S
Fe90        O100   1.969       .  S
Fe91        O109   2.081       .  S
Fe91         O96   2.079       .  S
Fe91        O103   2.082       .  S
Fe91         O92   2.072       .  S
Fe91        O100   1.979       .  S
O92          C99   1.267       .  A
O93         C107   1.265       .  A
O94          C99   1.264       .  A
O95          C98   1.271       .  A
O96         C108   1.270       .  A
O97         C110   1.264       .  A
C98         O103   1.275       .  A
C98         C862   1.475       .  S
C99         C822   1.487       .  S
O101        C104   1.272       .  A
O102        C104   1.269       .  A
C104        C842   1.463       .  S
O105        C110   1.266       .  A
O106        C108   1.269       .  A
C107        O109   1.271       .  A
C107        C793   1.473       .  S
C108        C773   1.498       .  S
C110        C882   1.491       .  S
Fe111       O127   2.046       .  S
Fe111       O117   2.055       .  S
Fe111       O124   2.068       .  S
Fe111       O116   2.027       .  S
Fe111       O122   1.966       .  S
Fe112       O115   2.037       .  S
Fe112       O119   2.051       .  S
Fe112       O123   2.060       .  S
Fe112       O128   2.070       .  S
Fe112       O122   1.960       .  S
Fe113       O131   2.094       .  S
Fe113       O118   2.066       .  S
Fe113       O125   2.090       .  S
Fe113       O114   2.071       .  S
Fe113       O122   1.981       .  S
O114        C121   1.271       .  A
O115        C129   1.262       .  A
O116        C121   1.265       .  A
O117        C120   1.266       .  A
O118        C130   1.267       .  A
O119        C132   1.265       .  A
C120        O125   1.273       .  A
C120        C813   1.488       .  S
C121        C733   1.470       .  S
O123        C126   1.268       .  A
O124        C126   1.269       .  A
C126        C753   1.484       .  S
O127        C132   1.265       .  A
O128        C130   1.268       .  A
C129        O131   1.276       .  A
C129       C1222   1.494       .  S
C130        C693   1.481       .  S
C132        C713   1.471       .  S
Fe133       O149   2.048       .  S
Fe133       O139   2.078       .  S
Fe133       O146   2.107       .  S
Fe133       O138   2.039       .  S
Fe133       O144   1.951       .  S
Fe134       O137   2.047       .  S
Fe134       O141   2.089       .  S
Fe134       O145   2.055       .  S
Fe134       O150   2.061       .  S
Fe134       O144   1.948       .  S
Fe135       O153   2.090       .  S
Fe135       O140   2.060       .  S
Fe135       O147   2.069       .  S
Fe135       O136   2.080       .  S
Fe135       O144   1.958       .  S
O136        C143   1.273       .  A
O137        C151   1.269       .  A
O138        C143   1.268       .  A
O139        C142   1.270       .  A
O140        C152   1.267       .  A
O141        C154   1.273       .  A
C142        O147   1.269       .  A
C142        C613   1.485       .  S
C143        C653   1.457       .  S
O145        C148   1.264       .  A
O146        C148   1.275       .  A
C148        C673   1.499       .  S
O149        C154   1.266       .  A
O150        C152   1.267       .  A
C151        O153   1.274       .  A
C151        C982   1.477       .  S
C152        C593   1.475       .  S
C154        C633   1.487       .  S
Fe155       O171   2.067       .  S
Fe155       O161   2.050       .  S
Fe155       O168   2.048       .  S
Fe155       O160   2.048       .  S
Fe155       O166   1.977       .  S
Fe156       O159   2.052       .  S
Fe156       O163   2.067       .  S
Fe156       O167   2.065       .  S
Fe156       O172   2.067       .  S
Fe156       O166   1.965       .  S
Fe157       O175   2.079       .  S
Fe157       O162   2.074       .  S
Fe157       O169   2.070       .  S
Fe157       O158   2.081       .  S
Fe157       O166   1.985       .  S
O158        C165   1.267       .  A
O159        C173   1.266       .  A
O160        C165   1.262       .  A
O161        C164   1.272       .  A
O162        C174   1.272       .  A
O163        C176   1.265       .  A
C164        O169   1.273       .  A
C164        C553   1.466       .  S
C165        C622   1.486       .  S
O167        C170   1.272       .  A
O168        C170   1.268       .  A
C170        C533   1.457       .  S
O171        C176   1.263       .  A
O172        C174   1.271       .  A
C173        O175   1.269       .  A
C173        C513   1.479       .  S
C174        C782   1.488       .  S
C176        C573   1.502       .  S
Fe177       O193   2.059       .  S
Fe177       O183   2.075       .  S
Fe177       O190   2.094       .  S
Fe177       O182   2.044       .  S
Fe177       O188   1.934       .  S
Fe178       O181   2.043       .  S
Fe178       O185   2.081       .  S
Fe178       O189   2.047       .  S
Fe178       O194   2.078       .  S
Fe178       O188   1.937       .  S
Fe179       O197   2.097       .  S
Fe179       O184   2.074       .  S
Fe179       O191   2.077       .  S
Fe179       O180   2.089       .  S
Fe179       O188   1.948       .  S
O180        C187   1.274       .  A
O181        C195   1.267       .  A
O182        C187   1.270       .  A
O183        C186   1.270       .  A
O184        C196   1.270       .  A
O185        C198   1.269       .  A
C186        O191   1.271       .  A
C186        C482   1.479       .  S
C187       C1133   1.484       .  S
O189        C192   1.266       .  A
O190        C192   1.274       .  A
C192        C902   1.470       .  S
O193        C198   1.267       .  A
O194        C196   1.270       .  A
C195        O197   1.277       .  A
C195        C493   1.477       .  S
C196        C873   1.493       .  S
C198       C1162   1.493       .  S
Fe199       O215   2.057       .  S
Fe199       O205   2.076       .  S
Fe199       O212   2.067       .  S
Fe199       O204   2.045       .  S
Fe199       O210   1.939       .  S
Fe200       O203   2.044       .  S
Fe200       O207   2.077       .  S
Fe200       O211   2.047       .  S
Fe200       O216   2.079       .  S
Fe200       O210   1.936       .  S
Fe201       O219   2.113       .  S
Fe201       O206   2.078       .  S
Fe201       O213   2.060       .  S
Fe201       O202   2.117       .  S
Fe201       O210   1.958       .  S
O202        C209   1.277       .  A
O203        C217   1.263       .  A
O204        C209   1.262       .  A
O205        C208   1.273       .  A
O206        C218   1.273       .  A
O207        C220   1.268       .  A
C208        O213   1.272       .  A
C208       C1262   1.475       .  S
C209        C473   1.502       .  S
O211        C214   1.269       .  A
O212        C214   1.270       .  A
C214       C1273   1.464       .  S
O215        C220   1.267       .  A
O216        C218   1.273       .  A
C217        O219   1.277       .  A
C217       C1073   1.499       .  S
C218        C462   1.480       .  S
C220        C702   1.477       .  S
Fe221       O237   2.048       .  S
Fe221       O227   2.066       .  S
Fe221       O234   2.060       .  S
Fe221       O226   2.051       .  S
Fe221       O232   1.964       .  S
Fe222       O225   2.061       .  S
Fe222       O229   2.067       .  S
Fe222       O233   2.051       .  S
Fe222       O238   2.071       .  S
Fe222       O232   1.958       .  S
Fe223       O241   2.085       .  S
Fe223       O228   2.060       .  S
Fe223       O235   2.051       .  S
Fe223       O224   2.083       .  S
Fe223       O232   1.971       .  S
O224        C231   1.270       .  A
O225        C239   1.266       .  A
O226        C231   1.265       .  A
O227        C230   1.271       .  A
O228        C240   1.270       .  A
O229        C242   1.267       .  A
C230        O235   1.269       .  A
C230        C722   1.465       .  S
C231        C422   1.483       .  S
O233        C236   1.269       .  A
O234        C236   1.268       .  A
C236        C742   1.459       .  S
O237        C242   1.265       .  A
O238        C240   1.272       .  A
C239        O241   1.271       .  A
C239        C682   1.493       .  S
C240        C433   1.471       .  S
C242       C1193   1.481       .  S
Fe243       O259   2.058       .  S
Fe243       O249   2.056       .  S
Fe243       O256   2.068       .  S
Fe243       O248   2.048       .  S
Fe243       O254   1.971       .  S
Fe244       O247   2.074       .  S
Fe244       O251   2.053       .  S
Fe244       O255   2.065       .  S
Fe244       O260   2.056       .  S
Fe244       O254   1.972       .  S
Fe245       O263   2.063       .  S
Fe245       O250   2.078       .  S
Fe245       O257   2.077       .  S
Fe245       O246   2.076       .  S
Fe245       O254   1.983       .  S
O246        C253   1.271       .  A
O247        C261   1.274       .  A
O248        C253   1.266       .  A
O249        C252   1.266       .  A
O250        C262   1.270       .  A
O251        C264   1.264       .  A
C252        O257   1.268       .  A
C252        C413   1.485       .  S
C253        C833   1.469       .  S
O255        C258   1.269       .  A
O256        C258   1.269       .  A
C258        C522   1.494       .  S
O259        C264   1.264       .  A
O260        C262   1.265       .  A
C261        O263   1.269       .  A
C261        C502   1.475       .  S
C262       C1182   1.488       .  S
C264        C853   1.492       .  S
Fe265       O281   2.056       .  S
Fe265       O271   2.055       .  S
Fe265       O278   2.064       .  S
Fe265       O270   2.063       .  S
Fe265       O276   1.956       .  S
Fe266       O269   2.074       .  S
Fe266       O273   2.056       .  S
Fe266       O277   2.064       .  S
Fe266       O282   2.062       .  S
Fe266       O276   1.950       .  S
Fe267       O285   2.069       .  S
Fe267       O272   2.087       .  S
Fe267       O279   2.090       .  S
Fe267       O268   2.057       .  S
Fe267       O276   1.962       .  S
O268        C275   1.271       .  A
O269        C283   1.273       .  A
O270        C275   1.269       .  A
O271        C274   1.266       .  A
O272        C284   1.272       .  A
O273        C286   1.270       .  A
C274        O279   1.271       .  A
C274        C373   1.487       .  S
C275        C542   1.459       .  S
O277        C280   1.267       .  A
O278        C280   1.269       .  A
C280        C802   1.477       .  S
O281        C286   1.267       .  A
O282        C284   1.266       .  A
C283        O285   1.272       .  A
C283        C393   1.473       .  S
C284        C953   1.493       .  S
C286        C562   1.460       .  S
Fe287       O303   2.078       .  S
Fe287       O293   2.034       .  S
Fe287       O300   2.044       .  S
Fe287       O292   2.074       .  S
Fe287       O298   1.948       .  S
Fe288       O291   2.081       .  S
Fe288       O295   2.050       .  S
Fe288       O299   2.062       .  S
Fe288       O304   2.038       .  S
Fe288       O298   1.945       .  S
Fe289       O307   2.065       .  S
Fe289       O294   2.100       .  S
Fe289       O301   2.094       .  S
Fe289       O290   2.076       .  S
Fe289       O298   1.963       .  S
O290        C297   1.273       .  A
O291        C305   1.271       .  A
O292        C297   1.272       .  A
O293        C296   1.264       .  A
O294        C306   1.274       .  A
O295        C308   1.268       .  A
C296        O301   1.274       .  A
C296        C642   1.478       .  S
C297        C382   1.479       .  S
O299        C302   1.267       .  A
O300        C302   1.263       .  A
C302        C662   1.461       .  S
O303        C308   1.272       .  A
O304        C306   1.261       .  A
C305        O307   1.270       .  A
C305        C762   1.473       .  S
C306        C442   1.483       .  S
C308       C1002   1.469       .  S
Fe309       O325   2.050       .  S
Fe309       O315   2.078       .  S
Fe309       O322   2.090       .  S
Fe309       O314   2.041       .  S
Fe309       O320   1.956       .  S
Fe310       O313   2.048       .  S
Fe310       O317   2.072       .  S
Fe310       O321   2.060       .  S
Fe310       O326   2.058       .  S
Fe310       O320   1.950       .  S
Fe311       O329   2.101       .  S
Fe311       O316   2.077       .  S
Fe311       O323   2.082       .  S
Fe311       O312   2.087       .  S
Fe311       O320   1.960       .  S
O312        C319   1.275       .  A
O313        C327   1.271       .  A
O314        C319   1.267       .  A
O315        C318   1.271       .  A
O316        C328   1.267       .  A
O317        C330   1.269       .  A
C318        O323   1.271       .  A
C318        C353   1.494       .  S
C319        C922   1.466       .  S
O321        C324   1.268       .  A
O322        C324   1.272       .  A
C324       C1093   1.494       .  S
O325        C330   1.266       .  A
O326        C328   1.265       .  A
C327        O329   1.278       .  A
C327        C402   1.475       .  S
C328        C582   1.501       .  S
C330        C942   1.461       .  S
Fe331       O347   2.064       .  S
Fe331       O337   2.058       .  S
Fe331       O344   2.052       .  S
Fe331       O336   2.048       .  S
Fe331       O342   1.975       .  S
Fe332       O335   2.066       .  S
Fe332       O339   2.055       .  S
Fe332       O343   2.070       .  S
Fe332       O348   2.047       .  S
Fe332       O342   1.977       .  S
Fe333       O351   2.071       .  S
Fe333       O338   2.101       .  S
Fe333       O345   2.082       .  S
Fe333       O334   2.102       .  S
Fe333       O342   1.984       .  S
O334        C341   1.273       .  A
O335        C349   1.269       .  A
O336        C341   1.260       .  A
O337        C340   1.270       .  A
O338        C350   1.278       .  A
O339        C352   1.264       .  A
C340        O345   1.274       .  A
C340       C1042   1.478       .  S
C341        C362   1.515       .  S
O343        C346   1.271       .  A
O344        C346   1.267       .  A
C346       C1062   1.479       .  S
O347        C352   1.265       .  A
O348        C350   1.267       .  A
C349        O351   1.269       .  A
C349       C1302   1.492       .  S
C350        C453   1.486       .  S
C352        C602   1.470       .  S
C353        C354   1.416       .  A
C353        C358   1.413       .  A
C354        C355   1.414       .  A
C354       Br366   1.930       .  S
C355        C356   1.411       .  A
C355       Br370   1.929       .  S
C356        C359   1.498       .  S
C356        C357   1.411       .  A
C357        C358   1.411       .  A
C357       Br365   1.930       .  S
C358       Br369   1.930       .  S
C359        C360   1.408       .  A
C359        C364   1.405       .  A
C360        C361   1.418       .  A
C360       Br371   1.930       .  S
C361        C362   1.424       .  A
C361       Br367   1.927       .  S
C362        C363   1.431       .  A
C363        C364   1.410       .  A
C363       Br372   1.937       .  S
C364       Br368   1.938       .  S
C373        C374   1.415       .  A
C373        C378   1.414       .  A
C374        C375   1.406       .  A
C374       Br386   1.934       .  S
C375        C376   1.408       .  A
C375       Br390   1.933       .  S
C376        C379   1.489       .  S
C376        C377   1.410       .  A
C377        C378   1.413       .  A
C377       Br385   1.928       .  S
C378       Br389   1.929       .  S
C379        C380   1.410       .  A
C379        C384   1.410       .  A
C380        C381   1.410       .  A
C380       Br391   1.928       .  S
C381        C382   1.410       .  A
C381       Br387   1.929       .  S
C382        C383   1.411       .  A
C383        C384   1.408       .  A
C383       Br392   1.929       .  S
C384       Br388   1.930       .  S
C393        C394   1.409       .  A
C393        C398   1.409       .  A
C394        C395   1.403       .  A
C394       Br406   1.928       .  S
C395        C396   1.409       .  A
C395       Br410   1.933       .  S
C396        C399   1.484       .  S
C396        C397   1.411       .  A
C397        C398   1.410       .  A
C397       Br405   1.927       .  S
C398       Br409   1.927       .  S
C399        C400   1.409       .  A
C399        C404   1.411       .  A
C400        C401   1.402       .  A
C400       Br411   1.935       .  S
C401        C402   1.411       .  A
C401       Br407   1.930       .  S
C402        C403   1.408       .  A
C403        C404   1.412       .  A
C403       Br412   1.926       .  S
C404       Br408   1.927       .  S
C413        C414   1.414       .  A
C413        C418   1.413       .  A
C414        C415   1.407       .  A
C414       Br426   1.932       .  S
C415        C416   1.408       .  A
C415       Br430   1.930       .  S
C416        C419   1.485       .  S
C416        C417   1.408       .  A
C417        C418   1.409       .  A
C417       Br425   1.929       .  S
C418       Br429   1.926       .  S
C419        C420   1.408       .  A
C419        C424   1.409       .  A
C420        C421   1.406       .  A
C420       Br431   1.933       .  S
C421        C422   1.414       .  A
C421       Br427   1.933       .  S
C422        C423   1.413       .  A
C423        C424   1.411       .  A
C423       Br432   1.929       .  S
C424       Br428   1.928       .  S
C433        C434   1.409       .  A
C433        C438   1.411       .  A
C434        C435   1.406       .  A
C434       Br446   1.929       .  S
C435        C436   1.409       .  A
C435       Br450   1.929       .  S
C436        C439   1.479       .  S
C436        C437   1.408       .  A
C437        C438   1.405       .  A
C437       Br445   1.930       .  S
C438       Br449   1.931       .  S
C439        C440   1.406       .  A
C439        C444   1.407       .  A
C440        C441   1.400       .  A
C440       Br451   1.938       .  S
C441        C442   1.420       .  A
C441       Br447   1.939       .  S
C442        C443   1.415       .  A
C443        C444   1.411       .  A
C443       Br452   1.928       .  S
C444       Br448   1.927       .  S
C453        C454   1.410       .  A
C453        C458   1.417       .  A
C454        C455   1.414       .  A
C454       Br466   1.921       .  S
C455        C456   1.412       .  A
C455       Br470   1.927       .  S
C456        C459   1.491       .  S
C456        C457   1.409       .  A
C457        C458   1.404       .  A
C457       Br465   1.936       .  S
C458       Br469   1.933       .  S
C459        C460   1.410       .  A
C459        C464   1.413       .  A
C460        C461   1.404       .  A
C460       Br471   1.933       .  S
C461        C462   1.410       .  A
C461       Br467   1.928       .  S
C462        C463   1.410       .  A
C463        C464   1.414       .  A
C463       Br472   1.928       .  S
C464       Br468   1.928       .  S
C473        C474   1.426       .  A
C473        C478   1.419       .  A
C474        C475   1.409       .  A
C474       Br486   1.938       .  S
C475        C476   1.405       .  A
C475       Br490   1.935       .  S
C476        C479   1.493       .  S
C476        C477   1.409       .  A
C477        C478   1.415       .  A
C477       Br485   1.929       .  S
C478       Br489   1.930       .  S
C479        C480   1.412       .  A
C479        C484   1.410       .  A
C480        C481   1.412       .  A
C480       Br491   1.927       .  S
C481        C482   1.409       .  A
C481       Br487   1.929       .  S
C482        C483   1.410       .  A
C483        C484   1.408       .  A
C483       Br492   1.929       .  S
C484       Br488   1.930       .  S
C493        C494   1.412       .  A
C493        C498   1.416       .  A
C494        C495   1.410       .  A
C494       Br506   1.929       .  S
C495        C496   1.408       .  A
C495       Br510   1.926       .  S
C496        C499   1.480       .  S
C496        C497   1.407       .  A
C497        C498   1.401       .  A
C497       Br505   1.936       .  S
C498       Br509   1.937       .  S
C499        C500   1.409       .  A
C499        C504   1.408       .  A
C500        C501   1.407       .  A
C500       Br511   1.928       .  S
C501        C502   1.407       .  A
C501       Br507   1.926       .  S
C502        C503   1.412       .  A
C503        C504   1.405       .  A
C503       Br512   1.931       .  S
C504       Br508   1.930       .  S
C513        C514   1.410       .  A
C513        C518   1.412   1_565  A
C514        C515   1.410   1_565  A
C514       Br526   1.929       .  S
C515        C516   1.412       .  A
C515       Br530   1.929       .  S
C516        C519   1.487       .  S
C516        C517   1.409       .  A
C517        C518   1.406       .  A
C517       Br525   1.933       .  S
C518       Br529   1.930       .  S
C519        C520   1.406       .  A
C519        C524   1.409       .  A
C520        C521   1.407       .  A
C520       Br531   1.933       .  S
C521        C522   1.420       .  A
C521       Br527   1.933       .  S
C522        C523   1.420       .  A
C523        C524   1.410       .  A
C523       Br532   1.935       .  S
C524       Br528   1.932       .  S
C533        C534   1.404   1_556  A
C533        C538   1.405       .  A
C534        C535   1.403       .  A
C534       Br546   1.928   1_554  S
C535        C536   1.410       .  A
C535       Br550   1.928       .  S
C536        C539   1.472       .  S
C536        C537   1.409       .  A
C537        C538   1.400   1_554  A
C537       Br545   1.932       .  S
C538       Br549   1.930       .  S
C539        C540   1.409       .  A
C539        C544   1.408       .  A
C540        C541   1.405       .  A
C540       Br551   1.929       .  S
C541        C542   1.406       .  A
C541       Br547   1.928       .  S
C542        C543   1.406       .  A
C543        C544   1.400       .  A
C543       Br552   1.929       .  S
C544       Br548   1.932       .  S
C553        C554   1.407       .  A
C553        C558   1.409       .  A
C554        C555   1.396       .  A
C554       Br566   1.930       .  S
C555        C556   1.407       .  A
C555       Br570   1.933       .  S
C556        C559   1.472       .  S
C556        C557   1.409       .  A
C557        C558   1.407       .  A
C557       Br565   1.928       .  S
C558       Br569   1.928       .  S
C559        C560   1.409       .  A
C559        C564   1.407       .  A
C560        C561   1.404       .  A
C560       Br571   1.929       .  S
C561        C562   1.407       .  A
C561       Br567   1.930       .  S
C562        C563   1.408       .  A
C563        C564   1.400       .  A
C563       Br572   1.931       .  S
C564       Br568   1.932       .  S
C573        C574   1.425       .  A
C573        C578   1.424       .  A
C574        C575   1.410       .  A
C574       Br586   1.935       .  S
C575        C576   1.406       .  A
C575       Br590   1.935       .  S
C576        C579   1.489       .  S
C576        C577   1.405       .  A
C577        C578   1.410       .  A
C577       Br585   1.932       .  S
C578       Br589   1.935       .  S
C579        C580   1.405       .  A
C579        C584   1.406       .  A
C580        C581   1.409       .  A
C580       Br591   1.932       .  S
C581        C582   1.424       .  A
C581       Br587   1.936       .  S
C582        C583   1.424       .  A
C583        C584   1.411       .  A
C583       Br592   1.933       .  S
C584       Br588   1.933       .  S
C593        C594   1.413       .  A
C593        C598   1.413   1_655  A
C594        C595   1.406   1_655  A
C594       Br606   1.932       .  S
C595        C596   1.408       .  A
C595       Br610   1.929       .  S
C596        C599   1.480       .  S
C596        C597   1.407       .  A
C597        C598   1.405       .  A
C597       Br605   1.931       .  S
C598       Br609   1.933   1_455  S
C599        C600   1.410       .  A
C599        C604   1.407       .  A
C600        C601   1.406       .  A
C600       Br611   1.931       .  S
C601        C602   1.407       .  A
C601       Br607   1.929       .  S
C602        C603   1.410       .  A
C603        C604   1.406       .  A
C603       Br612   1.930       .  S
C604       Br608   1.930       .  S
C613        C614   1.414       .  A
C613        C618   1.412       .  A
C614        C615   1.411       .  A
C614       Br626   1.931       .  S
C615        C616   1.410       .  A
C615       Br630   1.930       .  S
C616        C619   1.491       .  S
C616        C617   1.410       .  A
C617        C618   1.409       .  A
C617       Br625   1.929       .  S
C618       Br629   1.930       .  S
C619        C620   1.411       .  A
C619        C624   1.409       .  A
C620        C621   1.413       .  A
C620       Br631   1.928       .  S
C621        C622   1.413       .  A
C621       Br627   1.929       .  S
C622        C623   1.415       .  A
C623        C624   1.407       .  A
C623       Br632   1.934       .  S
C624       Br628   1.933       .  S
C633        C634   1.419   1_556  A
C633        C638   1.420       .  A
C634        C635   1.406       .  A
C634       Br646   1.933       .  S
C635        C636   1.405       .  A
C635       Br650   1.933       .  S
C636        C639   1.479       .  S
C636        C637   1.404       .  A
C637        C638   1.406   1_554  A
C637       Br645   1.931       .  S
C638       Br649   1.933       .  S
C639        C640   1.408       .  A
C639        C644   1.406       .  A
C640        C641   1.406       .  A
C640       Br651   1.931       .  S
C641        C642   1.413       .  A
C641       Br647   1.929       .  S
C642        C643   1.415       .  A
C643        C644   1.405       .  A
C643       Br652   1.933       .  S
C644       Br648   1.930       .  S
C653        C654   1.405       .  A
C653        C658   1.407       .  A
C654        C655   1.399       .  A
C654       Br666   1.931       .  S
C655        C656   1.408       .  A
C655       Br670   1.932       .  S
C656        C659   1.470       .  S
C656        C657   1.407       .  A
C657        C658   1.405       .  A
C657       Br665   1.928       .  S
C658       Br669   1.929       .  S
C659        C660   1.407       .  A
C659        C664   1.408       .  A
C660        C661   1.404       .  A
C660       Br671   1.928       .  S
C661        C662   1.408       .  A
C661       Br667   1.930       .  S
C662        C663   1.407       .  A
C663        C664   1.400       .  A
C663       Br672   1.930       .  S
C664       Br668   1.932       .  S
C673        C674   1.418       .  A
C673        C678   1.421       .  A
C674        C675   1.412       .  A
C674       Br686   1.931       .  S
C675        C676   1.410       .  A
C675       Br690   1.932       .  S
C676        C679   1.496       .  S
C676        C677   1.409       .  A
C677        C678   1.412       .  A
C677       Br685   1.933       .  S
C678       Br689   1.934       .  S
C679        C680   1.411       .  A
C679        C684   1.410       .  A
C680        C681   1.411       .  A
C680       Br691   1.930       .  S
C681        C682   1.416       .  A
C681       Br687   1.933       .  S
C682        C683   1.418       .  A
C683        C684   1.411       .  A
C683       Br692   1.933       .  S
C684       Br688   1.931       .  S
C693        C694   1.411   1_655  A
C693        C698   1.412       .  A
C694        C695   1.404       .  A
C694       Br706   1.925       .  S
C695        C696   1.407       .  A
C695       Br710   1.934       .  S
C696        C699   1.485       .  S
C696        C697   1.411       .  A
C697        C698   1.412   1_455  A
C697       Br705   1.928       .  S
C698       Br709   1.930       .  S
C699        C700   1.409       .  A
C699        C704   1.410       .  A
C700        C701   1.407       .  A
C700       Br711   1.929       .  S
C701        C702   1.411       .  A
C701       Br707   1.931       .  S
C702        C703   1.411       .  A
C703        C704   1.409       .  A
C703       Br712   1.929       .  S
C704       Br708   1.930       .  S
C713        C714   1.417       .  A
C713        C718   1.413       .  A
C714        C715   1.401   1_554  A
C714       Br726   1.935       .  S
C715        C716   1.405       .  A
C715       Br730   1.934       .  S
C716        C719   1.469       .  S
C716        C717   1.406       .  A
C717        C718   1.402   1_556  A
C717       Br725   1.932       .  S
C718       Br729   1.934       .  S
C719        C720   1.407       .  A
C719        C724   1.405       .  A
C720        C721   1.405       .  A
C720       Br731   1.928       .  S
C721        C722   1.409       .  A
C721       Br727   1.929       .  S
C722        C723   1.411       .  A
C723        C724   1.397       .  A
C723       Br732   1.924       .  S
C724       Br728   1.936       .  S
C733        C734   1.415       .  A
C733        C738   1.415       .  A
C734        C735   1.405       .  A
C734       Br746   1.931       .  S
C735        C736   1.405       .  A
C735       Br750   1.929       .  S
C736        C739   1.466       .  S
C736        C737   1.405       .  A
C737        C738   1.396       .  A
C737       Br745   1.937       .  S
C738       Br749   1.936       .  S
C739        C740   1.408       .  A
C739        C744   1.404       .  A
C740        C741   1.405       .  A
C740       Br751   1.928       .  S
C741        C742   1.406       .  A
C741       Br747   1.927       .  S
C742        C743   1.409       .  A
C743        C744   1.397       .  A
C743       Br752   1.928       .  S
C744       Br748   1.933       .  S
C753        C754   1.417       .  A
C753        C758   1.415       .  A
C754        C755   1.405       .  A
C754       Br766   1.934       .  S
C755        C756   1.407       .  A
C755       Br770   1.933       .  S
C756        C759   1.485       .  S
C756        C757   1.409       .  A
C757        C758   1.410       .  A
C757       Br765   1.929       .  S
C758       Br769   1.932       .  S
C759        C760   1.411       .  A
C759        C764   1.410       .  A
C760        C761   1.410       .  A
C760       Br771   1.928       .  S
C761        C762   1.408       .  A
C761       Br767   1.929       .  S
C762        C763   1.409       .  A
C763        C764   1.405       .  A
C763       Br772   1.927       .  S
C764       Br768   1.933       .  S
C773        C774   1.424       .  A
C773        C778   1.419       .  A
C774        C775   1.414       .  A
C774       Br786   1.933       .  S
C775        C776   1.406       .  A
C775       Br790   1.930       .  S
C776        C779   1.488       .  S
C776        C777   1.407       .  A
C777        C778   1.403       .  A
C777       Br785   1.930   1_554  S
C778       Br789   1.936       .  S
C779        C780   1.407   1_554  A
C779        C784   1.408   1_545  A
C780        C781   1.410   1_545  A
C780       Br791   1.930       .  S
C781        C782   1.418       .  A
C781       Br787   1.931       .  S
C782        C783   1.414       .  A
C783        C784   1.406   1_556  A
C783       Br792   1.929   1_556  S
C784       Br788   1.930       .  S
C793        C794   1.408       .  A
C793        C798   1.409       .  A
C794        C795   1.409       .  A
C794       Br806   1.927       .  S
C795        C796   1.411       .  A
C795       Br810   1.928       .  S
C796        C799   1.484   1_545  S
C796        C797   1.409       .  A
C797        C798   1.404       .  A
C797       Br805   1.933   1_545  S
C798       Br809   1.927       .  S
C799        C800   1.408       .  A
C799        C804   1.409       .  A
C800        C801   1.407       .  A
C800       Br811   1.930       .  S
C801        C802   1.413       .  A
C801       Br807   1.932       .  S
C802        C803   1.412       .  A
C803        C804   1.407       .  A
C803       Br812   1.931       .  S
C804       Br808   1.931       .  S
C813        C814   1.418       .  A
C813        C818   1.411       .  A
C814        C815   1.406       .  A
C814       Br826   1.934       .  S
C815        C816   1.407       .  A
C815       Br830   1.934       .  S
C816        C819   1.490       .  S
C816        C817   1.411       .  A
C817        C818   1.413       .  A
C817       Br825   1.928       .  S
C818       Br829   1.925       .  S
C819        C820   1.410       .  A
C819        C824   1.408       .  A
C820        C821   1.412       .  A
C820       Br831   1.931       .  S
C821        C822   1.416       .  A
C821       Br827   1.932       .  S
C822        C823   1.414       .  A
C823        C824   1.407       .  A
C823       Br832   1.929       .  S
C824       Br828   1.931       .  S
C833        C834   1.408       .  A
C833        C838   1.410       .  A
C834        C835   1.405       .  A
C834       Br846   1.921       .  S
C835        C836   1.407       .  A
C835       Br850   1.930       .  S
C836        C839   1.475       .  S
C836        C837   1.407       .  A
C837        C838   1.403       .  A
C837       Br845   1.931       .  S
C838       Br849   1.929       .  S
C839        C840   1.409       .  A
C839        C844   1.407   1_556  A
C840        C841   1.404   1_556  A
C840       Br851   1.929       .  S
C841        C842   1.407       .  A
C841       Br847   1.929       .  S
C842        C843   1.407       .  A
C843        C844   1.403       .  A
C843       Br852   1.928       .  S
C844       Br848   1.930   1_554  S
C853        C854   1.424       .  A
C853        C858   1.426       .  A
C854        C855   1.402       .  A
C854       Br866   1.938       .  S
C855        C856   1.403       .  A
C855       Br870   1.934       .  S
C856        C859   1.474       .  S
C856        C857   1.401       .  A
C857        C858   1.407       .  A
C857       Br865   1.933       .  S
C858       Br869   1.934       .  S
C859        C860   1.408       .  A
C859        C864   1.404       .  A
C860        C861   1.405       .  A
C860       Br871   1.931       .  S
C861        C862   1.412       .  A
C861       Br867   1.928       .  S
C862        C863   1.414       .  A
C863        C864   1.401       .  A
C863       Br872   1.934       .  S
C864       Br868   1.930       .  S
C873        C874   1.416       .  A
C873        C878   1.418       .  A
C874        C875   1.409       .  A
C874       Br886   1.933       .  S
C875        C876   1.409       .  A
C875       Br890   1.931       .  S
C876        C879   1.494       .  S
C876        C877   1.410       .  A
C877        C878   1.412       .  A
C877       Br885   1.931       .  S
C878       Br889   1.932       .  S
C879        C880   1.411       .  A
C879        C884   1.410       .  A
C880        C881   1.411       .  A
C880       Br891   1.932       .  S
C881        C882   1.416       .  A
C881       Br887   1.931       .  S
C882        C883   1.417       .  A
C883        C884   1.410       .  A
C883       Br892   1.933       .  S
C884       Br888   1.932       .  S
C893        C894   1.412       .  A
C893        C898   1.413   1_565  A
C894        C895   1.408   1_565  A
C894       Br906   1.930       .  S
C895        C896   1.409       .  A
C895       Br910   1.929       .  S
C896        C899   1.483       .  S
C896        C897   1.407       .  A
C897        C898   1.405       .  A
C897       Br905   1.931       .  S
C898       Br909   1.932       .  S
C899        C900   1.409       .  A
C899        C904   1.410       .  A
C900        C901   1.407       .  A
C900       Br911   1.929       .  S
C901        C902   1.408       .  A
C901       Br907   1.929       .  S
C902        C903   1.407       .  A
C903        C904   1.407       .  A
C903       Br912   1.928       .  S
C904       Br908   1.929       .  S
C913        C914   1.408       .  A
C913        C918   1.406       .  A
C914        C915   1.407   1_554  A
C914       Br926   1.930       .  S
C915        C916   1.409       .  A
C915       Br930   1.928       .  S
C916        C919   1.478       .  S
C916        C917   1.408       .  A
C917        C918   1.404   1_556  A
C917       Br925   1.929       .  S
C918       Br929   1.929       .  S
C919        C920   1.409       .  A
C919        C924   1.409       .  A
C920        C921   1.408       .  A
C920       Br931   1.927       .  S
C921        C922   1.408       .  A
C921       Br927   1.928       .  S
C922        C923   1.408       .  A
C923        C924   1.402       .  A
C923       Br932   1.933       .  S
C924       Br928   1.932       .  S
C933        C934   1.406       .  A
C933        C938   1.406       .  A
C934        C935   1.404       .  A
C934       Br946   1.929       .  S
C935        C936   1.409       .  A
C935       Br950   1.929       .  S
C936        C939   1.474       .  S
C936        C937   1.409       .  A
C937        C938   1.401       .  A
C937       Br945   1.931       .  S
C938       Br949   1.928       .  S
C939        C940   1.407       .  A
C939        C944   1.411       .  A
C940        C941   1.401       .  A
C940       Br951   1.931       .  S
C941        C942   1.408       .  A
C941       Br947   1.930       .  S
C942        C943   1.406       .  A
C943        C944   1.405       .  A
C943       Br952   1.930       .  S
C944       Br948   1.930       .  S
C953        C954   1.420       .  A
C953        C958   1.416       .  A
C954        C955   1.410       .  A
C954       Br966   1.934       .  S
C955        C956   1.407       .  A
C955       Br970   1.932       .  S
C956        C959   1.489       .  S
C956        C957   1.408       .  A
C957        C958   1.410       .  A
C957       Br965   1.929       .  S
C958       Br969   1.932       .  S
C959        C960   1.406       .  A
C959        C964   1.406       .  A
C960        C961   1.411       .  A
C960       Br971   1.933       .  S
C961        C962   1.424       .  A
C961       Br967   1.935       .  S
C962        C963   1.420       .  A
C963        C964   1.410       .  A
C963       Br972   1.933       .  S
C964       Br968   1.931       .  S
C973        C974   1.409       .  A
C973        C978   1.407       .  A
C974        C975   1.405       .  A
C974       Br986   1.926       .  S
C975        C976   1.409       .  A
C975       Br990   1.931   1_455  S
C976        C979   1.482       .  S
C976        C977   1.409       .  A
C977        C978   1.408       .  A
C977       Br985   1.927   1_554  S
C978       Br989   1.923       .  S
C979        C980   1.408   1_554  A
C979        C984   1.409   1_454  A
C980        C981   1.403   1_455  A
C980       Br991   1.934   1_556  S
C981        C982   1.413       .  A
C981       Br987   1.934       .  S
C982        C983   1.411       .  A
C983        C984   1.411       .  A
C983       Br992   1.927       .  S
C984       Br988   1.926   1_556  S
C993        C994   1.418       .  A
C993        C998   1.414       .  A
C994        C995   1.406   1_455  A
C994      Br1006   1.934       .  S
C995        C996   1.406       .  A
C995      Br1010   1.932       .  S
C996        C999   1.478       .  S
C996        C997   1.406   1_655  A
C997        C998   1.404       .  A
C997      Br1005   1.930   1_455  S
C998      Br1009   1.933       .  S
C999       C1000   1.407       .  A
C999       C1004   1.409       .  A
C1000      C1001   1.405       .  A
C1000     Br1011   1.930       .  S
C1001      C1002   1.411       .  A
C1001     Br1007   1.931       .  S
C1002      C1003   1.409       .  A
C1003      C1004   1.405       .  A
C1003     Br1012   1.931       .  S
C1004     Br1008   1.931       .  S
C1013      C1014   1.409       .  A
C1013      C1018   1.406       .  A
C1014      C1015   1.406       .  A
C1014     Br1026   1.930       .  S
C1015      C1016   1.410       .  A
C1015     Br1030   1.930       .  S
C1016      C1019   1.483       .  S
C1016      C1017   1.410       .  A
C1017      C1018   1.406       .  A
C1017     Br1025   1.929       .  S
C1018     Br1029   1.926       .  S
C1019      C1020   1.406       .  A
C1019      C1024   1.405       .  A
C1020      C1021   1.412       .  A
C1020     Br1031   1.931       .  S
C1021      C1022   1.422       .  A
C1021     Br1027   1.932       .  S
C1022      C1023   1.424       .  A
C1023      C1024   1.404       .  A
C1023     Br1032   1.938       .  S
C1024     Br1028   1.937       .  S
C1033      C1034   1.414       .  A
C1033      C1038   1.413       .  A
C1034      C1035   1.406       .  A
C1034     Br1046   1.932       .  S
C1035      C1036   1.407   1_554  A
C1035     Br1050   1.930       .  S
C1036      C1039   1.480       .  S
C1036      C1037   1.408       .  A
C1037      C1038   1.406   1_556  A
C1037     Br1045   1.932       .  S
C1038     Br1049   1.931       .  S
C1039      C1040   1.406       .  A
C1039      C1044   1.408       .  A
C1040      C1041   1.405       .  A
C1040     Br1051   1.931       .  S
C1041      C1042   1.410       .  A
C1041     Br1047   1.922       .  S
C1042      C1043   1.412       .  A
C1043      C1044   1.408       .  A
C1043     Br1052   1.930       .  S
C1044     Br1048   1.930       .  S
C1053      C1054   1.413       .  A
C1053      C1058   1.412       .  A
C1054      C1055   1.407       .  A
C1054     Br1066   1.930       .  S
C1055      C1056   1.407       .  A
C1055     Br1070   1.929       .  S
C1056      C1059   1.479       .  S
C1056      C1057   1.407       .  A
C1057      C1058   1.404       .  A
C1057     Br1065   1.933       .  S
C1058     Br1069   1.928       .  S
C1059      C1060   1.408       .  A
C1059      C1064   1.406       .  A
C1060      C1061   1.405       .  A
C1060     Br1071   1.931       .  S
C1061      C1062   1.414       .  A
C1061     Br1067   1.934       .  S
C1062      C1063   1.417       .  A
C1063      C1064   1.406       .  A
C1063     Br1072   1.934       .  S
C1064     Br1068   1.931       .  S
C1073      C1074   1.421       .  A
C1073      C1078   1.426       .  A
C1074      C1075   1.413       .  A
C1074     Br1086   1.932       .  S
C1075      C1076   1.408       .  A
C1075     Br1090   1.931       .  S
C1076      C1079   1.487       .  S
C1076      C1077   1.403       .  A
C1077      C1078   1.405       .  A
C1077     Br1085   1.935       .  S
C1078     Br1089   1.938       .  S
C1079      C1080   1.410       .  A
C1079      C1084   1.409       .  A
C1080      C1081   1.406       .  A
C1080     Br1091   1.932       .  S
C1081      C1082   1.411       .  A
C1081     Br1087   1.930       .  S
C1082      C1083   1.413       .  A
C1083      C1084   1.409       .  A
C1083     Br1092   1.931       .  S
C1084     Br1088   1.929       .  S
C1093      C1094   1.419       .  A
C1093      C1098   1.420       .  A
C1094      C1095   1.409       .  A
C1094     Br1106   1.933       .  S
C1095      C1096   1.406       .  A
C1095     Br1110   1.931       .  S
C1096      C1099   1.489       .  S
C1096      C1097   1.407       .  A
C1097      C1098   1.410       .  A
C1097     Br1105   1.932       .  S
C1098     Br1109   1.933       .  S
C1099      C1100   1.407   1_565  A
C1099      C1104   1.407   1_565  A
C1100      C1101   1.408       .  A
C1100     Br1111   1.932   1_545  S
C1101      C1102   1.420       .  A
C1101     Br1107   1.934       .  S
C1102      C1103   1.417       .  A
C1103      C1104   1.411       .  A
C1103     Br1112   1.926       .  S
C1104     Br1108   1.930       .  S
C1113      C1114   1.408       .  A
C1113      C1118   1.408       .  A
C1114      C1115   1.409   1_556  A
C1114     Br1126   1.929       .  S
C1115      C1116   1.412   1_554  A
C1115     Br1130   1.928       .  S
C1116      C1119   1.488   1_556  S
C1116      C1117   1.410       .  A
C1117      C1118   1.407       .  A
C1117     Br1125   1.930   1_545  S
C1118     Br1129   1.929       .  S
C1119      C1120   1.409       .  A
C1119      C1124   1.411   1_545  A
C1120      C1121   1.401   1_545  A
C1120     Br1131   1.937       .  S
C1121      C1122   1.414       .  A
C1121     Br1127   1.934       .  S
C1122      C1123   1.414       .  A
C1123      C1124   1.415       .  A
C1123     Br1132   1.928       .  S
C1124     Br1128   1.927       .  S
C1133      C1134   1.417       .  A
C1133      C1138   1.419       .  A
C1134      C1135   1.402       .  A
C1134     Br1146   1.934       .  S
C1135      C1136   1.404       .  A
C1135     Br1150   1.932       .  S
C1136      C1139   1.477       .  S
C1136      C1137   1.406       .  A
C1137      C1138   1.407       .  A
C1137     Br1145   1.931       .  S
C1138     Br1149   1.932       .  S
C1139      C1140   1.406       .  A
C1139      C1144   1.403       .  A
C1140      C1141   1.404       .  A
C1140     Br1151   1.932       .  S
C1141      C1142   1.418   1_554  A
C1141     Br1147   1.935       .  S
C1142      C1143   1.422       .  A
C1143      C1144   1.406   1_556  A
C1143     Br1152   1.933       .  S
C1144     Br1148   1.933       .  S
C1153      C1154   1.422       .  A
C1153      C1158   1.427       .  A
C1154      C1155   1.406       .  A
C1154     Br1166   1.931       .  S
C1155      C1156   1.404       .  A
C1155     Br1170   1.931       .  S
C1156      C1159   1.482       .  S
C1156      C1157   1.404       .  A
C1157      C1158   1.407       .  A
C1157     Br1165   1.936       .  S
C1158     Br1169   1.939       .  S
C1159      C1160   1.406       .  A
C1159      C1164   1.406       .  A
C1160      C1161   1.404       .  A
C1160     Br1171   1.937       .  S
C1161      C1162   1.423       .  A
C1161     Br1167   1.938       .  S
C1162      C1163   1.423       .  A
C1163      C1164   1.409       .  A
C1163     Br1172   1.934       .  S
C1164     Br1168   1.932       .  S
C1173      C1174   1.414       .  A
C1173      C1178   1.415       .  A
C1174      C1175   1.407       .  A
C1174     Br1186   1.933       .  S
C1175      C1176   1.408       .  A
C1175     Br1190   1.931       .  S
C1176      C1179   1.489       .  S
C1176      C1177   1.410       .  A
C1177      C1178   1.411       .  A
C1177     Br1185   1.929       .  S
C1178     Br1189   1.931       .  S
C1179      C1180   1.407       .  A
C1179      C1184   1.410       .  A
C1180      C1181   1.408       .  A
C1180     Br1191   1.933       .  S
C1181      C1182   1.419       .  A
C1181     Br1187   1.935       .  S
C1182      C1183   1.413       .  A
C1183      C1184   1.411       .  A
C1183     Br1192   1.930       .  S
C1184     Br1188   1.929       .  S
C1193      C1194   1.414       .  A
C1193      C1198   1.417       .  A
C1194      C1195   1.406       .  A
C1194     Br1206   1.932       .  S
C1195      C1196   1.408       .  A
C1195     Br1210   1.931       .  S
C1196      C1199   1.481       .  S
C1196      C1197   1.406       .  A
C1197      C1198   1.406       .  A
C1197     Br1205   1.931       .  S
C1198     Br1209   1.934       .  S
C1199      C1200   1.409   1_655  A
C1199      C1204   1.406       .  A
C1200      C1201   1.409       .  A
C1200     Br1211   1.928       .  S
C1201      C1202   1.412       .  A
C1201     Br1207   1.930       .  S
C1202      C1203   1.417       .  A
C1203      C1204   1.404   1_455  A
C1203     Br1212   1.933       .  S
C1204     Br1208   1.934       .  S
C1213      C1214   1.404       .  A
C1213      C1218   1.408       .  A
C1214      C1215   1.404   1_556  A
C1214     Br1226   1.922       .  S
C1215      C1216   1.408   1_554  A
C1215     Br1230   1.927       .  S
C1216      C1219   1.477   1_556  S
C1216      C1217   1.409       .  A
C1217      C1218   1.404       .  A
C1217     Br1225   1.929   1_455  S
C1218     Br1229   1.930       .  S
C1219      C1220   1.403   1_455  A
C1219      C1224   1.403       .  A
C1220      C1221   1.411       .  A
C1220     Br1231   1.929       .  S
C1221      C1222   1.421       .  A
C1221     Br1227   1.928       .  S
C1222      C1223   1.429       .  A
C1223      C1224   1.401   1_655  A
C1223     Br1232   1.945       .  S
C1224     Br1228   1.940   1_554  S
C1233      C1234   1.413       .  A
C1233      C1238   1.413       .  A
C1234      C1235   1.407       .  A
C1234     Br1246   1.929       .  S
C1235      C1236   1.409       .  A
C1235     Br1250   1.931       .  S
C1236      C1239   1.483       .  S
C1236      C1237   1.407       .  A
C1237      C1238   1.407       .  A
C1237     Br1245   1.928       .  S
C1238     Br1249   1.930       .  S
C1239      C1240   1.407       .  A
C1239      C1244   1.407       .  A
C1240      C1241   1.409       .  A
C1240     Br1251   1.929       .  S
C1241      C1242   1.416       .  A
C1241     Br1247   1.930       .  S
C1242      C1243   1.419       .  A
C1243      C1244   1.406       .  A
C1243     Br1252   1.935       .  S
C1244     Br1248   1.934       .  S
C1253      C1254   1.421       .  A
C1253      C1258   1.416   1_556  A
C1254      C1255   1.407   1_556  A
C1254     Br1266   1.936       .  S
C1255      C1256   1.405       .  A
C1255     Br1270   1.931       .  S
C1256      C1259   1.480       .  S
C1256      C1257   1.406       .  A
C1257      C1258   1.405       .  A
C1257     Br1265   1.933       .  S
C1258     Br1269   1.930       .  S
C1259      C1260   1.408       .  A
C1259      C1264   1.408       .  A
C1260      C1261   1.407       .  A
C1260     Br1271   1.930       .  S
C1261      C1262   1.412       .  A
C1261     Br1267   1.931       .  S
C1262      C1263   1.412       .  A
C1263      C1264   1.405       .  A
C1263     Br1272   1.932       .  S
C1264     Br1268   1.931       .  S
C1273      C1274   1.410       .  A
C1273      C1278   1.411       .  A
C1274      C1275   1.401       .  A
C1274     Br1286   1.932       .  S
C1275      C1276   1.407       .  A
C1275     Br1290   1.932       .  S
C1276      C1279   1.469       .  S
C1276      C1277   1.406       .  A
C1277      C1278   1.403       .  A
C1277     Br1285   1.930       .  S
C1278     Br1289   1.930       .  S
C1279      C1280   1.402       .  A
C1279      C1284   1.403       .  A
C1280      C1281   1.402       .  A
C1280     Br1291   1.937       .  S
C1281      C1282   1.426       .  A
C1281     Br1287   1.939       .  S
C1282      C1283   1.419       .  A
C1283      C1284   1.404       .  A
C1283     Br1292   1.932       .  S
C1284     Br1288   1.931       .  S
C1293      C1294   1.409       .  A
C1293      C1298   1.410       .  A
C1294      C1295   1.407       .  A
C1294     Br1306   1.929       .  S
C1295      C1296   1.409       .  A
C1295     Br1310   1.929       .  S
C1296      C1299   1.488       .  S
C1296      C1297   1.411       .  A
C1297      C1298   1.410       .  A
C1297     Br1305   1.929       .  S
C1298     Br1309   1.929       .  S
C1299      C1300   1.408       .  A
C1299      C1304   1.406       .  A
C1300      C1301   1.411       .  A
C1300     Br1311   1.930       .  S
C1301      C1302   1.417       .  A
C1301     Br1307   1.932       .  S
C1302      C1303   1.421       .  A
C1303      C1304   1.409       .  A
C1303     Br1312   1.935       .  S
C1304     Br1308   1.932       .  S
