geometry optimzed in LAMMPS
_audit_creation_date              2020-12-01 
_audit_creation_method            'lammps2cif' 
_symmetry_space_group_name_H-M    'P1' 
_symmetry_Int_Tables_number       1 
_symmetry_cell_setting            triclinic 
loop_ 
_symmetry_equiv_pos_as_xyz 
  x,y,z 
_cell_length_a                    57.02011289 
_cell_length_b                    56.85260483201971 
_cell_length_c                    30.99348632758052 
_cell_angle_alpha                 90.11057842534224 
_cell_angle_beta                  90.06169202905825 
_cell_angle_gamma                 90.14210530885674 
loop_ 
_atom_site_label 
_atom_site_type_symbol 
_atom_site_fract_x 
_atom_site_fract_y 
_atom_site_fract_z 
_atom_site_charge 
Zr1        Zr  0.90392137  0.39055963  0.38276170     2.17500
O2          O  0.92662529  0.41900805  0.34116827    -0.52000
O3          O  0.89531501  0.37973505  0.30780708    -0.75200
O4          O  0.94627087  0.38130654  0.38209776    -0.82000
O5          O  0.85362571  0.43463093  0.39825752    -0.83700
O6          O  0.95229789  0.34885568  0.42321715    -0.79300
O7          O  0.89109797  0.43160815  0.37441065    -0.91000
O8          O  0.86783576  0.35092041  0.30549201    -0.76900
O9          O  0.90159046  0.34855480  0.38499420    -0.86400
O10         O  0.86333455  0.38109920  0.37571270    -0.86100
O11         O  0.91883331  0.37951816  0.45282561    -0.72900
O12         O  0.88382023  0.40911193  0.44166148    -0.85000
Zr13       Zr  0.85512314  0.34565342  0.50658904     2.26400
Zr14       Zr  0.91534344  0.33724020  0.45526371     2.06300
Zr15       Zr  0.84348092  0.39876054  0.43523894     2.10000
Zr16       Zr  0.86097999  0.33927725  0.37857295     1.78800
O17         O  0.82851491  0.42909877  0.48341457    -0.93800
O18         O  0.87881461  0.30446350  0.34664751    -0.41600
O19         O  0.84120304  0.35711931  0.43732098    -0.78300
O20         O  0.87501925  0.32656114  0.44722552    -0.97000
O21         O  0.89544747  0.35571772  0.51392652    -0.90300
O22         O  0.85726481  0.38759451  0.50517660    -0.93100
C23         C  0.88112922  0.36606285  0.28734536     1.00700
C24         C  0.87198280  0.44324692  0.38043640     1.13600
C25         C  0.95972294  0.36563456  0.39913143     1.04400
O26         O  0.92558951  0.30321459  0.41132918    -0.95300
O27         O  0.90726786  0.30317064  0.50128480    -0.91000
O28         O  0.86937382  0.30647677  0.52310937    -0.84100
C29         C  0.88878498  0.29521999  0.52020210     1.11000
O30         O  0.92063750  0.43327935  0.49862741    -0.97200
Zr31       Zr  0.89792524  0.39747412  0.51057532     1.88900
O32         O  0.86260574  0.35787187  0.58139070    -0.73900
O33         O  0.94643754  0.33052685  0.50779766    -0.53100
O34         O  0.93660286  0.39322242  0.54323823    -0.97800
O35         O  0.88062442  0.43238226  0.54336078    -0.55000
O36         O  0.89126393  0.38541846  0.58342533    -0.74400
C37         C  0.87727506  0.37104759  0.60187071     0.98000
O38         O  0.82960463  0.32381528  0.55560309    -0.63200
O39         O  0.81292834  0.40584568  0.38171134    -0.58000
O40         O  0.81284297  0.34771903  0.48787462    -0.94700
O41         O  0.80587539  0.38276182  0.45504057    -0.93100
O42         O  0.82286516  0.34325320  0.34398971    -0.93500
O43         O  0.83491865  0.30580303  0.38907449    -0.92300
C44         C  0.79909334  0.36305750  0.47059151     1.16800
H45         H  0.85673848  0.38738268  0.34947660     0.32700
H46         H  0.87300938  0.30971043  0.44670743     0.43600
H47         H  0.84798585  0.39443331  0.52801087     0.37100
H48         H  0.93475145  0.38474684  0.45727039     0.33600
H49         H  0.86820285  0.30007902  0.32261616     0.25400
H50         H  0.95807392  0.32063476  0.49257088     0.31300
H51         H  0.93516484  0.40014249  0.57245042     0.37200
H52         H  0.81537172  0.35663719  0.35905729     0.31700
H53         H  0.80477774  0.42017480  0.39187682     0.30600
H54         H  0.82117372  0.44082282  0.46410416     0.32200
H55         H  0.86845742  0.42648491  0.56338678     0.31200
H56         H  0.82660839  0.30932187  0.41637680     0.35200
H57         H  0.81831914  0.33542611  0.56721237     0.27900
H58         H  0.93602292  0.40973805  0.32039298     0.32200
H59         H  0.92673178  0.43798263  0.52730473     0.35000
H60         H  0.82118506  0.41081632  0.35516234     0.27600
H61         H  0.82012406  0.31309171  0.53734380     0.40500
H62         H  0.93610020  0.30936934  0.38856938     0.30600
H63         H  0.89318334  0.31028782  0.33223957     0.38200
H64         H  0.87173159  0.43991562  0.51968702     0.30000
H65         H  0.95424465  0.34598546  0.51135124     0.30100
H66         H  0.93808851  0.42587722  0.36165431     0.30400
Zr67       Zr  0.90763458  0.38940936  0.88607835     2.17500
O68         O  0.93281627  0.41596505  0.84504945    -0.52000
O69         O  0.89984790  0.37916583  0.80992267    -0.75200
O70         O  0.94925705  0.37829229  0.89024244    -0.82000
O71         O  0.85873079  0.43502923  0.89448473    -0.83700
O72         O  0.95405365  0.34645868  0.93358820    -0.79300
O73         O  0.89774864  0.43137677  0.88115375    -0.91000
O74         O  0.87446221  0.34858745  0.80615599    -0.76900
O75         O  0.90430128  0.34753922  0.88955537    -0.86400
O76         O  0.86717519  0.38094711  0.87455202    -0.86100
O77         O  0.92001997  0.37862527  0.95799477    -0.72900
O78         O  0.88657188  0.40899684  0.94263529    -0.85000
Zr79       Zr  0.85390256  0.34673398  0.00520765     2.26400
Zr80       Zr  0.91556588  0.33648065  0.96141195     2.06300
Zr81       Zr  0.84626577  0.39983211  0.93163344     2.10000
Zr82       Zr  0.86385322  0.33910088  0.87846307     1.78800
O83         O  0.83015943  0.42937526  0.98021541    -0.93800
O84         O  0.88112716  0.30343951  0.84869520    -0.41600
O85         O  0.84299604  0.35820859  0.93423678    -0.78300
O86         O  0.87531156  0.32655281  0.94890335    -0.97000
O87         O  0.89417750  0.35573899  0.01746026    -0.90300
O88         O  0.85717124  0.38865547  0.00340407    -0.93100
C89         C  0.88720828  0.36432979  0.78854431     1.00700
C90         C  0.87855690  0.44326055  0.88226939     1.13600
C91         C  0.96212187  0.36282620  0.90923510     1.04400
O92         O  0.92778290  0.30272543  0.91865498    -0.95300
O93         O  0.90485427  0.30292465  0.00689895    -0.91000
O94         O  0.86673660  0.30761748  0.02586558    -0.84100
C95         C  0.88585121  0.29575223  0.02518409     1.11000
O96         O  0.92239246  0.43253623  0.00993761    -0.97200
Zr97       Zr  0.89783976  0.39738220  0.01341529     1.88900
O98         O  0.85795258  0.35959388  0.08017895    -0.73900
O99         O  0.94444324  0.33020851  0.01821790    -0.53100
O100        O  0.93520404  0.39236229  0.05064913    -0.97800
O101        O  0.87952806  0.43257675  0.04323478    -0.55000
O102        O  0.88788011  0.38573332  0.08503162    -0.74400
C103        C  0.87255723  0.37219197  0.10184402     0.98000
O104        O  0.82664095  0.32405401  0.04948727    -0.63200
O105        O  0.81727285  0.41147092  0.87785633    -0.58000
O106        O  0.81220462  0.35012369  0.98322031    -0.94700
O107        O  0.80815464  0.38240461  0.94068142    -0.93100
O108        O  0.82739911  0.34515005  0.83910486    -0.93500
O109        O  0.83626180  0.30657479  0.88580097    -0.92300
C110        C  0.79998443  0.36409651  0.95938813     1.16800
H111        H  0.86147849  0.38712126  0.84751736     0.32700
H112        H  0.87288229  0.30975263  0.94894460     0.43600
H113        H  0.84733890  0.39579094  0.02510984     0.37100
H114        H  0.93590785  0.38350497  0.96392593     0.33600
H115        H  0.87129427  0.29958225  0.82327907     0.25400
H116        H  0.95599899  0.31919952  0.00559205     0.31300
H117        H  0.93284926  0.37879894  0.07016968     0.37200
H118        H  0.82321303  0.36174526  0.84492905     0.31700
H119        H  0.81264335  0.42767278  0.88588524     0.30600
H120        H  0.81325692  0.42997495  0.97299038     0.32200
H121        H  0.86775439  0.42689101  0.06424613     0.31200
H122        H  0.83046009  0.30777408  0.91583189     0.35200
H123        H  0.81536340  0.33555007  0.06149067     0.27900
H124        H  0.94258176  0.40585931  0.82625993     0.32200
H125        H  0.92582674  0.43686386  0.04027342     0.35000
H126        H  0.82601013  0.41321020  0.85045729     0.27600
H127        H  0.81737892  0.31417656  0.02933381     0.40500
H128        H  0.91324861  0.29346974  0.91423839     0.30600
H129        H  0.89630211  0.30854152  0.83629108     0.38200
H130        H  0.87021249  0.43915103  0.01917727     0.30000
H131        H  0.95295629  0.34534588  0.02079898     0.30100
H132        H  0.94384594  0.42285729  0.86630816     0.30400
Zr133      Zr  0.90417327  0.10869291  0.24479508     2.17500
O134        O  0.92928613  0.08002916  0.28075825    -0.52000
O135        O  0.89639182  0.11855604  0.32070854    -0.75200
O136        O  0.94569698  0.12011071  0.24637739    -0.82000
O137        O  0.85564135  0.06287760  0.23073347    -0.83700
O138        O  0.95069023  0.15343997  0.20735595    -0.79300
O139        O  0.89367263  0.06699414  0.25126314    -0.91000
O140        O  0.87123157  0.14924728  0.32483135    -0.76900
O141        O  0.90079879  0.15058599  0.24399681    -0.86400
O142        O  0.86351267  0.11699826  0.25473188    -0.86100
O143        O  0.91820280  0.12088228  0.17477994    -0.72900
O144        O  0.88427109  0.08995684  0.18556452    -0.85000
Zr145      Zr  0.85242985  0.15289908  0.12568093     2.26400
Zr146      Zr  0.91357900  0.16290002  0.17383901     2.06300
Zr147      Zr  0.84378946  0.09874717  0.19549258     2.10000
Zr148      Zr  0.86017446  0.15889888  0.25256703     1.78800
O149        O  0.82692871  0.06381403  0.16186999    -0.93800
O150        O  0.87717519  0.19571098  0.27824480    -0.41600
O151        O  0.83936278  0.14042772  0.19528236    -0.78300
O152        O  0.87305595  0.17246226  0.18368835    -0.97000
O153        O  0.89310666  0.14470793  0.11540886    -0.90300
O154        O  0.85642388  0.11101731  0.12544539    -0.93100
C155        C  0.88395140  0.13339532  0.34213897     1.00700
C156        C  0.87484214  0.05476635  0.24618636     1.13600
C157        C  0.95854980  0.13671179  0.23089039     1.04400
O158        O  0.92509918  0.19764632  0.21489717    -0.95300
O159        O  0.90448393  0.19627784  0.12745090    -0.91000
O160        O  0.86680509  0.19172816  0.10515497    -0.84100
C161        C  0.88614042  0.20340141  0.10717296     1.11000
O162        O  0.92324609  0.06926317  0.12173053    -0.97200
Zr163      Zr  0.89715489  0.10310554  0.11659689     1.88900
O164        O  0.85540120  0.13959368  0.05083901    -0.73900
O165        O  0.94497466  0.16744777  0.12116470    -0.53100
O166        O  0.93456462  0.10723630  0.07933828    -0.97800
O167        O  0.87896991  0.06882220  0.08270512    -0.55000
O168        O  0.88828077  0.11746432  0.04584043    -0.74400
C169        C  0.87152613  0.12921387  0.02907481     0.98000
O170        O  0.82500040  0.17682291  0.08436157    -0.63200
O171        O  0.81396013  0.09668106  0.25159182    -0.58000
O172        O  0.81117397  0.14775933  0.14930437    -0.94700
O173        O  0.80882648  0.10867341  0.15590543    -0.93100
O174        O  0.82481600  0.15466690  0.29595191    -0.93500
O175        O  0.83137256  0.19013499  0.24415156    -0.92300
C176        C  0.79916755  0.12888102  0.15605772     1.16800
H177        H  0.85757614  0.11047149  0.28132202     0.32700
H178        H  0.87064900  0.18926153  0.18365945     0.43600
H179        H  0.84697779  0.10382046  0.10312925     0.37100
H180        H  0.93432582  0.11643036  0.17019031     0.33600
H181        H  0.86824230  0.19949729  0.30473276     0.25400
H182        H  0.95553430  0.17951626  0.13370813     0.31300
H183        H  0.93472297  0.12361504  0.06856333     0.37200
H184        H  0.82522432  0.13831848  0.30685307     0.31700
H185        H  0.80594775  0.11209186  0.25028435     0.30600
H186        H  0.81364328  0.05929053  0.18067753     0.32200
H187        H  0.86858196  0.07512515  0.05989589     0.31200
H188        H  0.82109562  0.18475312  0.22029738     0.35200
H189        H  0.81291019  0.16579261  0.07339010     0.27900
H190        H  0.93743764  0.08869630  0.30413103     0.32200
H191        H  0.92367325  0.06220201  0.09250340     0.35000
H192        H  0.80218109  0.08536686  0.24048390     0.27600
H193        H  0.81679941  0.18672870  0.10587453     0.40500
H194        H  0.93070895  0.19154346  0.24296536     0.30600
H195        H  0.89298402  0.19145288  0.28883293     0.38200
H196        H  0.86816391  0.06248109  0.10481694     0.30000
H197        H  0.95403594  0.15263480  0.12262981     0.30100
H198        H  0.94169233  0.07591685  0.25971992     0.30400
Zr199      Zr  0.90130984  0.10993242  0.74675087     2.17500
O200        O  0.92349553  0.08234097  0.79097590    -0.52000
O201        O  0.89328475  0.12104656  0.82196560    -0.75200
O202        O  0.94345324  0.11835924  0.74542647    -0.82000
O203        O  0.85058586  0.06569822  0.73130071    -0.83700
O204        O  0.95074822  0.15035687  0.70375564    -0.79300
O205        O  0.88870247  0.06852745  0.75175333    -0.91000
O206        O  0.86949405  0.15270171  0.82553298    -0.76900
O207        O  0.90132767  0.15196505  0.74303625    -0.86400
O208        O  0.86149671  0.12113596  0.75630493    -0.86100
O209        O  0.91569756  0.11991566  0.67569144    -0.72900
O210        O  0.88021570  0.09146659  0.68900744    -0.85000
Zr211      Zr  0.85295069  0.15525564  0.62421630     2.26400
Zr212      Zr  0.91404631  0.16226484  0.67159044     2.06300
Zr213      Zr  0.84049987  0.10303141  0.69828083     2.10000
Zr214      Zr  0.86154746  0.16320957  0.75205833     1.78800
O215        O  0.82034940  0.07549470  0.65056987    -0.93800
O216        O  0.88263805  0.19705144  0.78122068    -0.41600
O217        O  0.84065445  0.14477368  0.69507015    -0.78300
O218        O  0.87437854  0.17461616  0.68158932    -0.97000
O219        O  0.89265684  0.14400965  0.61425028    -0.90300
O220        O  0.85326811  0.11324146  0.62687536    -0.93100
C221        C  0.88115892  0.13617024  0.84326940     1.00700
C222        C  0.86952458  0.05676941  0.74649931     1.13600
C223        C  0.95743854  0.13337250  0.72798394     1.04400
O224        O  0.92624791  0.19701000  0.71190250    -0.95300
O225        O  0.90698087  0.19558507  0.62346999    -0.91000
O226        O  0.86908595  0.19290685  0.60209680    -0.84100
C227        C  0.88898762  0.20351328  0.60313236     1.11000
O228        O  0.91611901  0.06604256  0.62397719    -0.97200
Zr229      Zr  0.89348045  0.10226935  0.61892578     1.88900
O230        O  0.85927623  0.14330929  0.54871500    -0.73900
O231        O  0.94519739  0.16620741  0.61827363    -0.53100
O232        O  0.93193306  0.10515788  0.58500363    -0.97800
O233        O  0.87342040  0.06813146  0.58837902    -0.55000
O234        O  0.88638526  0.11427664  0.54618359    -0.74400
C235        C  0.87314143  0.12940590  0.52809910     0.98000
O236        O  0.82289014  0.17799610  0.58697082    -0.63200
O237        O  0.81190123  0.09445617  0.75469491    -0.58000
O238        O  0.81083941  0.15432448  0.64191181    -0.94700
O239        O  0.80412784  0.12314575  0.68624510    -0.93100
O240        O  0.82410653  0.16247464  0.78973499    -0.93500
O241        O  0.83832885  0.19872036  0.74225405    -0.92300
C242        C  0.79748923  0.14148467  0.66579280     1.16800
H243        H  0.85499091  0.11545778  0.78307483     0.32700
H244        H  0.87307067  0.19152645  0.68048776     0.43600
H245        H  0.84336701  0.10657981  0.60467166     0.37100
H246        H  0.93137114  0.11415466  0.67088754     0.33600
H247        H  0.87323491  0.20211023  0.80641755     0.25400
H248        H  0.95712557  0.17643466  0.63209659     0.31300
H249        H  0.93177674  0.12040185  0.56962017     0.37200
H250        H  0.81924047  0.14574797  0.78918147     0.31700
H251        H  0.80359341  0.08010933  0.74483510     0.30600
H252        H  0.80713724  0.06929079  0.66787106     0.32200
H253        H  0.86429258  0.07418163  0.56360225     0.31200
H254        H  0.82521229  0.19386532  0.72322073     0.35200
H255        H  0.82292391  0.19363865  0.60112708     0.27900
H256        H  0.93338012  0.09206749  0.81034008     0.32200
H257        H  0.91907252  0.06106674  0.59382298     0.35000
H258        H  0.82111216  0.08928928  0.78003680     0.27600
H259        H  0.82920482  0.18094773  0.55775711     0.40500
H260        H  0.94263448  0.19987881  0.70273372     0.30600
H261        H  0.89715534  0.19052129  0.79395290     0.38200
H262        H  0.86148109  0.06377895  0.61011916     0.30000
H263        H  0.95262399  0.15050735  0.61681405     0.30100
H264        H  0.93462317  0.07456873  0.77107742     0.30400
Zr265      Zr  0.34924230  0.35075893  0.12834424     2.17500
O266        O  0.32333411  0.32524796  0.16999503    -0.52000
O267        O  0.36310826  0.35606854  0.20266307    -0.75200
O268        O  0.35756950  0.30864446  0.11791826    -0.82000
O269        O  0.30490950  0.40148776  0.12675320    -0.83700
O270        O  0.39578498  0.31024225  0.10337053    -0.79300
O271        O  0.31005265  0.36382979  0.14871710    -0.91000
O272        O  0.38932601  0.38606769  0.20574900    -0.76900
O273        O  0.39087639  0.35500274  0.12421533    -0.86400
O274        O  0.35730246  0.39167589  0.13743994    -0.86100
O275        O  0.35883035  0.33758624  0.05586317    -0.72900
O276        O  0.32858031  0.37126919  0.07185920    -0.85000
Zr277      Zr  0.39065955  0.40205794  0.00438930     2.26400
Zr278      Zr  0.40069347  0.34196631  0.05276835     2.06300
Zr279      Zr  0.33794349  0.41198324  0.08023821     2.10000
Zr280      Zr  0.39867120  0.39597123  0.13244848     1.78800
O281        O  0.30341774  0.42323566  0.03890920    -0.93800
O282        O  0.43445369  0.38046139  0.16460451    -0.41600
O283        O  0.37958317  0.41590827  0.07474520    -0.78300
O284        O  0.41066440  0.38252183  0.06306559    -0.97000
O285        O  0.38117567  0.36166014  0.99494197    -0.90300
O286        O  0.34877663  0.39972485  0.00873585    -0.93100
C287        C  0.37617909  0.37066367  0.22355894     1.00700
C288        C  0.29814737  0.38300686  0.14721642     1.13600
C289        C  0.37674704  0.29862487  0.10631309     1.04400
O290        O  0.43858153  0.32685284  0.07594515    -0.95300
O291        O  0.43386490  0.35093113  0.00737042    -0.91000
O292        O  0.43073958  0.38926805  0.98816374    -0.84100
C293        C  0.44213755  0.36981804  0.99080911     1.11000
O294        O  0.30339715  0.33669504  0.00935805    -0.97200
Zr295      Zr  0.33951910  0.35918823  0.00054580     1.88900
O296        O  0.37974678  0.39347080  0.92921644    -0.73900
O297        O  0.39844317  0.30861883  0.00353832    -0.53100
O298        O  0.33874896  0.32096130  0.96494325    -0.97800
O299        O  0.30729857  0.38090171  0.96773585    -0.55000
O300        O  0.35286139  0.36415718  0.92753782    -0.74400
C301        C  0.36723749  0.37813407  0.90893376     0.98000
O302        O  0.41295151  0.43144161  0.96418907    -0.63200
O303        O  0.33240213  0.44328901  0.13312016    -0.58000
O304        O  0.38334571  0.44428189  0.01235900    -0.94700
O305        O  0.35107619  0.45006439  0.05394552    -0.93100
O306        O  0.39204782  0.43377742  0.16741728    -0.93500
O307        O  0.43179501  0.42255477  0.12256998    -0.92300
C308        C  0.36830404  0.45770368  0.03109831     1.16800
H309        H  0.35142328  0.39734763  0.16473841     0.32700
H310        H  0.42741295  0.38489625  0.06337059     0.43600
H311        H  0.34153361  0.40938683  0.98687392     0.37100
H312        H  0.35427723  0.32167285  0.04893872     0.33600
H313        H  0.42972486  0.36542012  0.17814299     0.25400
H314        H  0.40064774  0.31555523  0.97454980     0.31300
H315        H  0.35542098  0.31728904  0.95922048     0.37200
H316        H  0.38196368  0.44261627  0.14713529     0.31700
H317        H  0.31647068  0.44943506  0.12741188     0.30600
H318        H  0.29513917  0.43467791  0.05754625     0.32200
H319        H  0.29499463  0.38160857  0.99021671     0.31200
H320        H  0.42673682  0.43337115  0.09935722     0.35200
H321        H  0.42760385  0.43397779  0.98078151     0.27900
H322        H  0.33374680  0.31533476  0.18790973     0.32200
H323        H  0.29819990  0.34001315  0.03922218     0.35000
H324        H  0.33112338  0.43531872  0.16139395     0.27600
H325        H  0.41799524  0.42354826  0.93726571     0.40500
H326        H  0.44346382  0.33744164  0.09971116     0.30600
H327        H  0.44431093  0.37573404  0.13980769     0.38200
H328        H  0.30087553  0.37018944  0.94541070     0.30000
H329        H  0.41310221  0.29979035  0.00881980     0.30100
H330        H  0.31607546  0.31432547  0.14890390     0.30400
Zr331      Zr  0.34742051  0.35040820  0.62492460     2.17500
O332        O  0.32146992  0.32390173  0.66453179    -0.52000
O333        O  0.36030748  0.35529208  0.70035985    -0.75200
O334        O  0.35547307  0.30776347  0.61282556    -0.82000
O335        O  0.30505587  0.40294547  0.62786743    -0.83700
O336        O  0.38938300  0.30485164  0.57466132    -0.79300
O337        O  0.30803329  0.36393003  0.64301543    -0.91000
O338        O  0.38872759  0.38308520  0.70481562    -0.76900
O339        O  0.38900331  0.35378887  0.62074551    -0.86400
O340        O  0.35668232  0.39096890  0.63725182    -0.86100
O341        O  0.35644816  0.33923727  0.55167135    -0.88900
O342        O  0.32706543  0.37347829  0.57129972    -0.85000
Zr343      Zr  0.38936729  0.40447774  0.50464457     2.26400
Zr344      Zr  0.39835904  0.34330628  0.54780558     2.06300
Zr345      Zr  0.33796172  0.41367655  0.58243935     2.10000
Zr346      Zr  0.39805464  0.39430331  0.63235480     1.78800
O347        O  0.30433388  0.42713248  0.54085313    -0.93800
O348        O  0.43385944  0.37448225  0.65511271    -0.41600
O349        O  0.37965213  0.41693073  0.57689691    -0.78300
O350        O  0.40906492  0.38333830  0.56143370    -0.97000
O351        O  0.37852372  0.36472430  0.49276073    -0.90300
O352        O  0.34751848  0.40270135  0.50996662    -0.93100
C353        C  0.37424039  0.36874005  0.72207122     1.00700
C354        C  0.29721320  0.38376250  0.64415456     1.13600
C355        C  0.37184395  0.29576508  0.59415129     1.04400
O356        O  0.43252198  0.32748360  0.58487341    -0.95300
O357        O  0.43309001  0.35359141  0.50759948    -0.91000
O358        O  0.42951350  0.39174086  0.48728513    -0.84100
C359        C  0.44128305  0.37251357  0.49093239     1.11000
O360        O  0.30043918  0.34143185  0.51362894    -0.97200
Zr361      Zr  0.33688201  0.36259907  0.49919870     1.88900
O362        O  0.37926771  0.39522161  0.42914632    -0.73900
O363        O  0.40192167  0.31742623  0.48535246    -0.53100
O364        O  0.33637075  0.32526919  0.46041503    -0.97800
O365        O  0.30396451  0.38304575  0.46563502    -0.55000
O366        O  0.34963880  0.36865851  0.42665628    -0.74400
C367        C  0.36524859  0.38134355  0.40853211     0.98000
O368        O  0.41138931  0.43544265  0.46817827    -0.63200
O369        O  0.33100469  0.44361301  0.63750185    -0.58000
O370        O  0.38083024  0.44653322  0.51041663    -0.94700
O371        O  0.35145469  0.45199900  0.55857320    -0.93100
O372        O  0.39381503  0.42989930  0.67534765    -0.93500
O373        O  0.43174460  0.42059096  0.62746169    -0.92300
C374        C  0.36687101  0.45982431  0.53208165     1.16800
H375        H  0.35097975  0.39621573  0.66495544     0.32700
H376        H  0.42580398  0.38565928  0.56221488     0.43600
H377        H  0.34040396  0.41314577  0.48924067     0.37100
H378        H  0.35136113  0.32360640  0.54400912     0.33600
H379        H  0.43942530  0.38351816  0.68049124     0.25400
H380        H  0.41724435  0.30952012  0.48904048     0.31300
H381        H  0.35264239  0.31936711  0.46235494     0.37200
H382        H  0.37928927  0.43730022  0.66439485     0.31700
H383        H  0.31444049  0.44837831  0.63363204     0.30600
H384        H  0.30047066  0.44268785  0.55334304     0.32200
H385        H  0.29811275  0.37201534  0.44330075     0.31200
H386        H  0.43011567  0.42823352  0.59893260     0.35200
H387        H  0.42591206  0.43761217  0.48530379     0.27900
H388        H  0.33181975  0.31387967  0.68237458     0.32200
H389        H  0.29479193  0.33550364  0.48540528     0.35000
H390        H  0.33127081  0.43519010  0.66542942     0.27600
H391        H  0.41664200  0.42845619  0.44055175     0.40500
H392        H  0.43649867  0.31294655  0.56885111     0.30600
H393        H  0.42857743  0.35926463  0.66721901     0.38200
H394        H  0.31093322  0.39607262  0.44880552     0.30000
H395        H  0.39020080  0.30480919  0.48992004     0.30100
H396        H  0.31447447  0.31318035  0.64279798     0.30400
Zr397      Zr  0.15589000  0.34974503  0.25139713     2.17500
O398        O  0.18058890  0.32349884  0.20880413    -0.52000
O399        O  0.14244551  0.35580518  0.17662668    -0.75200
O400        O  0.14787804  0.30722566  0.26357657    -0.82000
O401        O  0.20046410  0.40138125  0.25522136    -0.83700
O402        O  0.10959386  0.30777644  0.27879588    -0.79300
O403        O  0.19539990  0.36342330  0.23401718    -0.91000
O404        O  0.11634347  0.38571975  0.17352249    -0.76900
O405        O  0.11432697  0.35395321  0.25492310    -0.86400
O406        O  0.14791614  0.39078753  0.24263902    -0.86100
O407        O  0.14607915  0.33681134  0.32370712    -0.72900
O408        O  0.17633338  0.37068414  0.30818532    -0.85000
Zr409      Zr  0.11323616  0.40111541  0.37469693     2.26400
Zr410      Zr  0.10434478  0.34092181  0.32627229     2.06300
Zr411      Zr  0.16672957  0.41137388  0.30047670     2.10000
Zr412      Zr  0.10651219  0.39494705  0.24667011     1.78800
O413        O  0.19979668  0.42191878  0.34645035    -0.93800
O414        O  0.07029902  0.37825501  0.21793049    -0.41600
O415        O  0.12496954  0.41530920  0.30481324    -0.78300
O416        O  0.09404646  0.38134107  0.31531412    -0.97000
O417        O  0.12329717  0.36093808  0.38449089    -0.90300
O418        O  0.15512857  0.39895071  0.37115704    -0.93100
C419        C  0.12966845  0.37055887  0.15562133     1.00700
C420        C  0.20748106  0.38254901  0.23606255     1.13600
C421        C  0.12885253  0.29666390  0.27510011     1.04400
O422        O  0.06816871  0.32220262  0.30230067    -0.95300
O423        O  0.06975861  0.34999562  0.36750494    -0.91000
O424        O  0.07262172  0.38813227  0.38851001    -0.84100
C425        C  0.06112406  0.36869972  0.38404453     1.11000
O426        O  0.20003855  0.33469935  0.36997257    -0.97200
Zr427      Zr  0.16501855  0.35865271  0.37918356     1.88900
O428        O  0.12297527  0.39178070  0.44996153    -0.73900
O429        O  0.10816650  0.31059564  0.38123084    -0.53100
O430        O  0.16391259  0.32078525  0.41599034    -0.97800
O431        O  0.19861104  0.37913515  0.41080644    -0.55000
O432        O  0.15269322  0.36545659  0.45187954    -0.74400
C433        C  0.13708079  0.37802372  0.47020406     0.98000
O434        O  0.09060323  0.43110427  0.41256414    -0.63200
O435        O  0.17406810  0.44371969  0.25076646    -0.58000
O436        O  0.12270519  0.44314850  0.37149896    -0.94700
O437        O  0.15418178  0.44931118  0.32806585    -0.93100
O438        O  0.11194875  0.43283636  0.21155211    -0.93500
O439        O  0.07389318  0.42233481  0.25289172    -0.92300
C440        C  0.13788923  0.45667944  0.35325777     1.16800
H441        H  0.15406698  0.39656067  0.21563128     0.32700
H442        H  0.07730800  0.38352406  0.31388174     0.43600
H443        H  0.16201206  0.40877522  0.39325651     0.37100
H444        H  0.15065208  0.32104309  0.33133703     0.33600
H445        H  0.06731083  0.38712202  0.19101533     0.25400
H446        H  0.10020188  0.31716583  0.40692903     0.31300
H447        H  0.17098674  0.32366497  0.44471926     0.37200
H448        H  0.12915549  0.43486894  0.20956998     0.31700
H449        H  0.19029661  0.44889966  0.25719284     0.30600
H450        H  0.20183804  0.43905692  0.34224399     0.32200
H451        H  0.20621919  0.36734074  0.42961713     0.31200
H452        H  0.07239416  0.42536855  0.28423802     0.35200
H453        H  0.07690193  0.43434210  0.39383478     0.27900
H454        H  0.16969771  0.31347572  0.19191555     0.32200
H455        H  0.19693250  0.32525879  0.34368485     0.35000
H456        H  0.17501710  0.43638856  0.22182562     0.27600
H457        H  0.08399987  0.42321133  0.43829155     0.40500
H458        H  0.06210742  0.33273323  0.27947261     0.30600
H459        H  0.07459002  0.36227661  0.20799377     0.38200
H460        H  0.19196961  0.39068562  0.43133753     0.30000
H461        H  0.09770387  0.29774925  0.37130942     0.30100
H462        H  0.18814861  0.31274777  0.22969730     0.30400
Zr463      Zr  0.15916959  0.35121346  0.75342354     2.17500
O464        O  0.18852564  0.32660997  0.71790583    -0.52000
O465        O  0.14663851  0.35421893  0.67776159    -0.75200
O466        O  0.15409958  0.30862804  0.76257972    -0.82000
O467        O  0.20001145  0.40503197  0.75154531    -0.83700
O468        O  0.12035195  0.30284901  0.80019010    -0.79300
O469        O  0.19701565  0.36649651  0.73360798    -0.91000
O470        O  0.11856969  0.38219272  0.67206770    -0.76900
O471        O  0.11747637  0.35257490  0.75482061    -0.86400
O472        O  0.14918389  0.39134471  0.74134806    -0.86100
O473        O  0.14938098  0.33917393  0.82556364    -0.72900
O474        O  0.17814838  0.37399195  0.80923194    -0.85000
Zr475      Zr  0.11319796  0.40215649  0.87171788     2.26400
Zr476      Zr  0.10735496  0.34058114  0.82660778     2.06300
Zr477      Zr  0.16650339  0.41388441  0.79811846     2.10000
Zr478      Zr  0.10766184  0.39296402  0.74395909     1.78800
O479        O  0.19923709  0.42727343  0.84250300    -0.93800
O480        O  0.07341592  0.37299566  0.71417675    -0.41600
O481        O  0.12458199  0.41551207  0.80110766    -0.78300
O482        O  0.09543025  0.38030458  0.81335361    -0.97000
O483        O  0.12490993  0.36269717  0.88401161    -0.90300
O484        O  0.15513435  0.40217355  0.86948605    -0.93100
C485        C  0.13293103  0.36750722  0.65561777     1.00700
C486        C  0.20773627  0.38630126  0.73307890     1.13600
C487        C  0.13869058  0.29541961  0.78064714     1.04400
O488        O  0.07500440  0.32304512  0.78637581    -0.95300
O489        O  0.07162584  0.34888260  0.86592366    -0.91000
O490        O  0.07366567  0.38703108  0.88711173    -0.84100
C491        C  0.06270771  0.36730334  0.88319489     1.11000
O492        O  0.20286117  0.33992993  0.87661764    -0.97200
Zr493      Zr  0.16670933  0.36261329  0.88046073     1.88900
O494        O  0.12242396  0.39500434  0.94798317    -0.73900
O495        O  0.10404736  0.31193173  0.88465291    -0.53100
O496        O  0.16660416  0.32508589  0.91843135    -0.97800
O497        O  0.19869050  0.38631271  0.90979063    -0.55000
O498        O  0.15345862  0.37048593  0.95238635    -0.74400
C499        C  0.13699758  0.38244111  0.96965028     0.98000
O500        O  0.08717825  0.43092323  0.90504521    -0.63200
O501        O  0.17041450  0.44535723  0.74526866    -0.58000
O502        O  0.12092991  0.44451125  0.86719113    -0.94700
O503        O  0.15226481  0.45147827  0.82384945    -0.93100
O504        O  0.11140387  0.42931360  0.70309323    -0.93500
O505        O  0.07396055  0.41892588  0.75064476    -0.92300
C506        C  0.13540805  0.45846591  0.84813103     1.16800
H507        H  0.15515168  0.39681390  0.71399071     0.32700
H508        H  0.07861223  0.38177407  0.81183862     0.43600
H509        H  0.16151873  0.41258113  0.89122392     0.37100
H510        H  0.15521226  0.32384926  0.83315361     0.33600
H511        H  0.06901864  0.38244268  0.68862170     0.25400
H512        H  0.08843080  0.30459658  0.88055255     0.31300
H513        H  0.17247929  0.32864151  0.94780808     0.37200
H514        H  0.12309729  0.43874070  0.71927822     0.31700
H515        H  0.18631691  0.45189843  0.75004797     0.30600
H516        H  0.21351038  0.42311253  0.82605714     0.32200
H517        H  0.21169657  0.38472760  0.88884895     0.31200
H518        H  0.07443361  0.42443803  0.78096970     0.35200
H519        H  0.07331656  0.43196766  0.88585247     0.27900
H520        H  0.17987897  0.31580763  0.69843135     0.32200
H521        H  0.20273459  0.33293538  0.84733095     0.35000
H522        H  0.17132110  0.43740122  0.71687928     0.27600
H523        H  0.08131482  0.42361808  0.93194262     0.40500
H524        H  0.06352216  0.33592855  0.78273527     0.30600
H525        H  0.07951898  0.35811391  0.70196319     0.38200
H526        H  0.20403257  0.37767820  0.93570027     0.30000
H527        H  0.10249591  0.32140035  0.91134124     0.30100
H528        H  0.19547069  0.31649560  0.74053728     0.30400
Zr529      Zr  0.09997850  0.61062734  0.38810484     2.17500
O530        O  0.07507216  0.58344638  0.34744917    -0.52000
O531        O  0.10942846  0.62017298  0.31244203    -0.75200
O532        O  0.05793794  0.62100447  0.38850201    -0.82000
O533        O  0.14919957  0.56570597  0.40557724    -0.83700
O534        O  0.05234639  0.65398079  0.42869242    -0.79300
O535        O  0.11157779  0.56903577  0.38235602    -0.91000
O536        O  0.13426384  0.65127624  0.31029502    -0.76900
O537        O  0.10205286  0.65262499  0.39081200    -0.86400
O538        O  0.14054130  0.62020918  0.38019495    -0.86100
O539        O  0.08577426  0.62192696  0.45867704    -0.72900
O540        O  0.12022710  0.59226409  0.44699928    -0.85000
Zr541      Zr  0.14950198  0.65605043  0.51156207     2.26400
Zr542      Zr  0.08924413  0.66416770  0.46159949     2.06300
Zr543      Zr  0.16051833  0.60245403  0.43977995     2.10000
Zr544      Zr  0.14240699  0.66223685  0.38321149     1.78800
O545        O  0.17706772  0.57490496  0.49161647    -0.93800
O546        O  0.12333797  0.69673694  0.35260158    -0.41600
O547        O  0.16208763  0.64414904  0.44162250    -0.78300
O548        O  0.12938146  0.67521730  0.45258239    -0.97000
O549        O  0.10933878  0.64584736  0.52001317    -0.90300
O550        O  0.14752123  0.61402197  0.51020719    -0.93100
C551        C  0.12223488  0.63518077  0.29196055     1.00700
C552        C  0.13046877  0.55710363  0.38868999     1.13600
C553        C  0.04481017  0.63717498  0.40484778     1.04400
O554        O  0.07930640  0.69903386  0.41991492    -0.95300
O555        O  0.09652179  0.69758917  0.50945762    -0.91000
O556        O  0.13484271  0.69509177  0.52905434    -0.84100
C557        C  0.11502145  0.70576223  0.52797732     1.11000
O558        O  0.08414673  0.56798281  0.50774541    -0.97200
Zr559      Zr  0.10692085  0.60407856  0.51645240     1.88900
O560        O  0.14254107  0.64468640  0.58700299    -0.73900
O561        O  0.05804333  0.66852089  0.51461837    -0.53100
O562        O  0.06844602  0.60664369  0.55044966    -0.97800
O563        O  0.12572492  0.56967776  0.54805629    -0.55000
O564        O  0.11374857  0.61722183  0.58885757    -0.74400
C565        C  0.12771059  0.63167691  0.60732663     0.98000
O566        O  0.17803170  0.67741851  0.55559282    -0.63200
O567        O  0.19062016  0.59077711  0.38819350    -0.58000
O568        O  0.19159581  0.65427391  0.49298231    -0.94700
O569        O  0.19770292  0.62181851  0.45139326    -0.93100
O570        O  0.18040395  0.65910829  0.34802949    -0.93500
O571        O  0.16807944  0.69637066  0.38938135    -0.92300
C572        C  0.20482003  0.64056288  0.47044953     1.16800
H573        H  0.14713743  0.61398061  0.35388929     0.32700
H574        H  0.13126343  0.69209166  0.45243954     0.43600
H575        H  0.15694471  0.60746068  0.53308969     0.37100
H576        H  0.06979678  0.61692060  0.46323417     0.33600
H577        H  0.13344598  0.70138834  0.32807743     0.25400
H578        H  0.04622689  0.67873220  0.50065565     0.31300
H579        H  0.07080005  0.60118109  0.58045660     0.37200
H580        H  0.18470371  0.64233157  0.35105028     0.31700
H581        H  0.19530250  0.57469602  0.39679274     0.30600
H582        H  0.18998722  0.56702788  0.47599027     0.32200
H583        H  0.13736897  0.57586977  0.56890896     0.31200
H584        H  0.17667382  0.69394209  0.41679076     0.35200
H585        H  0.18138052  0.69209886  0.53954610     0.27900
H586        H  0.06658405  0.59310610  0.32597784     0.32200
H587        H  0.08025856  0.56263942  0.53728478     0.35000
H588        H  0.18232730  0.58866945  0.36037235     0.27600
H589        H  0.16936010  0.68269192  0.58152077     0.40500
H590        H  0.07384031  0.69295556  0.39167684     0.30600
H591        H  0.10886936  0.69066108  0.33880508     0.38200
H592        H  0.13517315  0.56288593  0.52435331     0.30000
H593        H  0.05051142  0.65283496  0.51620083     0.30100
H594        H  0.06290013  0.57792723  0.36786831     0.30400
Zr595      Zr  0.09816781  0.61110233  0.89025100     2.17500
O596        O  0.07246442  0.58424052  0.85068700    -0.52000
O597        O  0.10451953  0.62247803  0.81433898    -0.75200
O598        O  0.05644937  0.62138676  0.89524466    -0.82000
O599        O  0.14860434  0.56685512  0.89610831    -0.83700
O600        O  0.05154692  0.65342325  0.93815180    -0.79300
O601        O  0.11000594  0.57014121  0.87883549    -0.91000
O602        O  0.13019054  0.65292460  0.81215662    -0.76900
O603        O  0.10010664  0.65295565  0.89668824    -0.86400
O604        O  0.13829969  0.62090172  0.87906022    -0.86100
O605        O  0.08591981  0.61992709  0.96310548    -0.72900
O606        O  0.12011916  0.59122538  0.94539842    -0.85000
Zr607      Zr  0.15129050  0.65373457  0.01149464     2.26400
Zr608      Zr  0.08917607  0.66200474  0.96984227     2.06300
Zr609      Zr  0.16012889  0.60190038  0.93484963     2.10000
Zr610      Zr  0.14017705  0.66272036  0.88510158     1.78800
O611        O  0.17748857  0.57153970  0.98008417    -0.93800
O612        O  0.12148125  0.69822185  0.85802680    -0.41600
O613        O  0.16186071  0.64348336  0.93964242    -0.78300
O614        O  0.12881054  0.67378026  0.95656966    -0.97000
O615        O  0.11161722  0.64288542  0.02429182    -0.90300
O616        O  0.14947685  0.61172590  0.00740693    -0.93100
C617        C  0.11735960  0.63741122  0.79379326     1.00700
C618        C  0.12937927  0.55859818  0.88085364     1.13600
C619        C  0.04362003  0.63705016  0.91370248     1.04400
O620        O  0.07343361  0.69813173  0.93959629    -0.95300
O621        O  0.09842159  0.69503740  0.01715068    -0.91000
O622        O  0.13681623  0.69199026  0.03469732    -0.84100
C623        C  0.11713405  0.70293437  0.03525065     1.11000
O624        O  0.08332223  0.56704605  0.01562057    -0.97200
Zr625      Zr  0.10919462  0.60127432  0.01725355     1.88900
O626        O  0.14719537  0.64036534  0.08629701    -0.73900
O627        O  0.06085117  0.66101842  0.02864386    -0.53100
O628        O  0.07319663  0.60675878  0.05844278    -0.97800
O629        O  0.12839535  0.56487169  0.03905058    -0.55000
O630        O  0.12025861  0.61106347  0.08940907    -0.74400
C631        C  0.13406050  0.62587521  0.10714160     0.98000
O632        O  0.18127445  0.67521710  0.05191996    -0.63200
O633        O  0.18912283  0.59343682  0.87917118    -0.58000
O634        O  0.19260837  0.65266100  0.98763139    -0.94700
O635        O  0.19781655  0.61991384  0.94656089    -0.93100
O636        O  0.17658997  0.65953090  0.84452299    -0.93500
O637        O  0.16653433  0.69606262  0.89503442    -0.92300
C638        C  0.20535150  0.63879434  0.96448009     1.16800
H639        H  0.14397554  0.61525239  0.85161787     0.32700
H640        H  0.13052345  0.69065933  0.95764843     0.43600
H641        H  0.15971359  0.60459082  0.02846633     0.37100
H642        H  0.07010831  0.61464923  0.96859476     0.33600
H643        H  0.13037804  0.70222203  0.83160758     0.25400
H644        H  0.04954323  0.67365498  0.02170770     0.31300
H645        H  0.07615734  0.59949232  0.08693845     0.37200
H646        H  0.17940852  0.64241540  0.84182394     0.31700
H647        H  0.19455315  0.57725138  0.88527062     0.30600
H648        H  0.19364911  0.57710523  0.98593443     0.32200
H649        H  0.14164627  0.56971497  0.05774173     0.31200
H650        H  0.17894899  0.69016754  0.91457364     0.35200
H651        H  0.18259655  0.69073718  0.03763609     0.27900
H652        H  0.06268836  0.59414082  0.83156625     0.32200
H653        H  0.08244737  0.56137582  0.04578044     0.35000
H654        H  0.18018720  0.59210600  0.85187079     0.27600
H655        H  0.17420014  0.67869119  0.08038755     0.40500
H656        H  0.08157123  0.69996990  0.91163814     0.30600
H657        H  0.10599755  0.69292667  0.84722308     0.38200
H658        H  0.13582688  0.55883711  0.01240243     0.30000
H659        H  0.05190102  0.64625398  0.02435867     0.30100
H660        H  0.06152329  0.57767799  0.87234887     0.30400
Zr661      Zr  0.09811944  0.88871480  0.25659291     2.17500
O662        O  0.07291077  0.91498444  0.29805326    -0.52000
O663        O  0.10760736  0.87751993  0.33122467    -0.75200
O664        O  0.05661679  0.87623978  0.25542817    -0.82000
O665        O  0.14485483  0.93706584  0.24210940    -0.83700
O666        O  0.05245195  0.84299531  0.21557393    -0.79300
O667        O  0.10785973  0.93047464  0.26681707    -0.91000
O668        O  0.13433699  0.84811656  0.33217376    -0.76900
O669        O  0.10338894  0.84711123  0.25295731    -0.86400
O670        O  0.13926029  0.88220143  0.26345582    -0.86100
O671        O  0.08396818  0.87733062  0.18615862    -0.72900
O672        O  0.11632563  0.90922336  0.19763181    -0.85000
Zr673      Zr  0.14968572  0.84810466  0.13141703     2.26400
Zr674      Zr  0.09009385  0.83553500  0.18248280     2.06300
Zr675      Zr  0.15728537  0.90205042  0.20411284     2.10000
Zr676      Zr  0.14456067  0.84066487  0.25878697     1.78800
O677        O  0.17017503  0.93681131  0.16484609    -0.93800
O678        O  0.13117015  0.80245018  0.28446441    -0.41600
O679        O  0.16292106  0.86061469  0.20086657    -0.78300
O680        O  0.13107986  0.82733513  0.19004655    -0.97000
O681        O  0.10875128  0.85531688  0.12384754    -0.90300
O682        O  0.14434581  0.88984235  0.13411483    -0.93100
C683        C  0.12117189  0.86299254  0.35105253     1.00700
C684        C  0.12585588  0.94376758  0.26045328     1.13600
C685        C  0.04400987  0.85969497  0.23865847     1.04400
O686        O  0.08064477  0.80022511  0.22335348    -0.95300
O687        O  0.09957572  0.80240373  0.13596343    -0.91000
O688        O  0.13700704  0.80806253  0.11306607    -0.84100
C689        C  0.11817970  0.79562036  0.11619878     1.11000
O690        O  0.07793165  0.93106688  0.13528649    -0.97200
Zr691      Zr  0.10331465  0.89678851  0.12817958     1.88900
O692        O  0.14274964  0.86093843  0.05707292    -0.73900
O693        O  0.05946214  0.83096776  0.12817620    -0.53100
O694        O  0.06467448  0.89064448  0.09622170    -0.97800
O695        O  0.11948750  0.93288058  0.09774255    -0.55000
O696        O  0.11142733  0.88523109  0.05530821    -0.74400
C697        C  0.12702696  0.87271832  0.03667825     0.98000
O698        O  0.17966512  0.82900145  0.08761915    -0.63200
O699        O  0.18682681  0.90758450  0.26003065    -0.58000
O700        O  0.19116591  0.85397791  0.15294369    -0.94700
O701        O  0.19357505  0.89264845  0.16776621    -0.93100
O702        O  0.18134584  0.84966932  0.29534823    -0.93500
O703        O  0.17514260  0.81116199  0.25079767    -0.92300
C704        C  0.20308493  0.87239213  0.16380350     1.16800
H705        H  0.14539302  0.88854788  0.29011770     0.32700
H706        H  0.13416471  0.81065661  0.18991465     0.43600
H707        H  0.15319057  0.89759912  0.11168673     0.37100
H708        H  0.06772911  0.88136048  0.18178803     0.33600
H709        H  0.14170655  0.79865899  0.30888643     0.25400
H710        H  0.04886199  0.81870022  0.13978014     0.31300
H711        H  0.06617343  0.89596816  0.06595106     0.37200
H712        H  0.18043947  0.84131466  0.32330166     0.31700
H713        H  0.19688508  0.89345425  0.25823647     0.30600
H714        H  0.18553487  0.94096553  0.17773196     0.32200
H715        H  0.13091023  0.92780404  0.07560176     0.31200
H716        H  0.18104623  0.81335342  0.22103522     0.35200
H717        H  0.18432700  0.81490275  0.10423998     0.27900
H718        H  0.06555475  0.90506738  0.32052202     0.32200
H719        H  0.07424880  0.93612649  0.10548034     0.35000
H720        H  0.19678642  0.92064969  0.24951528     0.27600
H721        H  0.17129504  0.82262430  0.06215157     0.40500
H722        H  0.09447265  0.78989430  0.21986979     0.30600
H723        H  0.11580810  0.80557917  0.29815277     0.38200
H724        H  0.12916343  0.93971310  0.12117215     0.30000
H725        H  0.05023914  0.84568255  0.12963911     0.30100
H726        H  0.05999219  0.91953686  0.27841449     0.30400
Zr727      Zr  0.10016723  0.89211602  0.75225262     2.17500
O728        O  0.07398648  0.92061701  0.78619289    -0.52000
O729        O  0.10729327  0.88211894  0.82839736    -0.75200
O730        O  0.05837462  0.88127582  0.75009168    -0.82000
O731        O  0.15125380  0.93602590  0.74058372    -0.83700
O732        O  0.05290632  0.84925784  0.70717864    -0.79300
O733        O  0.11317857  0.93325063  0.76131842    -0.91000
O734        O  0.12832229  0.84849309  0.83245705    -0.76900
O735        O  0.10094449  0.85009868  0.74804379    -0.86400
O736        O  0.13990352  0.88117072  0.76483049    -0.86100
O737        O  0.08763483  0.88180997  0.68010693    -0.72900
O738        O  0.12260920  0.91045772  0.69612225    -0.85000
Zr739      Zr  0.15182495  0.84682508  0.63296317     2.26400
Zr740      Zr  0.09006698  0.83951212  0.67558135     2.06300
Zr741      Zr  0.16213159  0.89895353  0.70837131     2.10000
Zr742      Zr  0.14049457  0.83921459  0.76048430     1.78800
O743        O  0.18428924  0.92577180  0.66259651    -0.93800
O744        O  0.12069669  0.80355475  0.78452461    -0.41600
O745        O  0.16256622  0.85730576  0.70495700    -0.78300
O746        O  0.12952091  0.82734913  0.68901790    -0.97000
O747        O  0.11234804  0.85792506  0.61990949    -0.90300
O748        O  0.15100341  0.88887061  0.63605821    -0.93100
C749        C  0.11773283  0.86583001  0.84990517     1.00700
C750        C  0.13241089  0.94492609  0.75604402     1.13600
C751        C  0.04534713  0.86550382  0.73211761     1.04400
O752        O  0.07411894  0.80504939  0.71183701    -0.95300
O753        O  0.09810481  0.80560719  0.62914920    -0.91000
O754        O  0.13646673  0.80861364  0.61099768    -0.84100
C755        C  0.11664455  0.79783006  0.61027661     1.11000
O756        O  0.09038984  0.93709868  0.63052789    -0.97200
Zr757      Zr  0.11099289  0.89967569  0.62504863     1.88900
O758        O  0.14700592  0.85877314  0.55708504    -0.73900
O759        O  0.06131501  0.83944116  0.61742852    -0.53100
O760        O  0.07298943  0.89778849  0.58910608    -0.97800
O761        O  0.13185240  0.93269594  0.59241444    -0.55000
O762        O  0.11922755  0.88706556  0.55311048    -0.74400
C763        C  0.13334421  0.87252569  0.53571383     0.98000
O764        O  0.18292925  0.82607057  0.59459683    -0.63200
O765        O  0.18769079  0.91041060  0.76793522    -0.58000
O766        O  0.19359687  0.84809127  0.65315411    -0.94700
O767        O  0.19855651  0.87824984  0.70058553    -0.93100
O768        O  0.17492070  0.84360656  0.80631765    -0.93500
O769        O  0.16778812  0.80645863  0.75517140    -0.92300
C770        C  0.20610708  0.86046313  0.67944913     1.16800
H771        H  0.14589872  0.88690628  0.79204368     0.32700
H772        H  0.13101895  0.81044687  0.68833099     0.43600
H773        H  0.16139071  0.89560506  0.61479042     0.37100
H774        H  0.07182300  0.88709471  0.67483960     0.33600
H775        H  0.12730653  0.80042041  0.81350229     0.25400
H776        H  0.04850435  0.82909791  0.62773140     0.31300
H777        H  0.07578603  0.90399746  0.55972481     0.37200
H778        H  0.17284697  0.83192854  0.82967859     0.31700
H779        H  0.20257224  0.91535350  0.75419002     0.30600
H780        H  0.17594634  0.94097195  0.66481310     0.32200
H781        H  0.14225234  0.92579110  0.57024007     0.31200
H782        H  0.17590647  0.80888914  0.72729856     0.35200
H783        H  0.18220106  0.80959793  0.60484922     0.27900
H784        H  0.06511035  0.91188589  0.80848720     0.32200
H785        H  0.08723306  0.94207284  0.60047060     0.35000
H786        H  0.19150819  0.89552721  0.78288127     0.27600
H787        H  0.17782678  0.82531018  0.56409402     0.40500
H788        H  0.08764144  0.79433097  0.71531371     0.30600
H789        H  0.10432227  0.80840577  0.79018597     0.38200
H790        H  0.14263770  0.93838921  0.61518835     0.30000
H791        H  0.05451183  0.85544152  0.61780852     0.30100
H792        H  0.06226749  0.92493107  0.76397212     0.30400
Zr793      Zr  0.65667002  0.65235933  0.13568063     2.17500
O794        O  0.68270254  0.67840567  0.17623473    -0.52000
O795        O  0.64342558  0.64917776  0.21053634    -0.75200
O796        O  0.64952985  0.69443601  0.12174914    -0.82000
O797        O  0.69840353  0.59906751  0.13844435    -0.83700
O798        O  0.61132145  0.69311248  0.10789334    -0.79300
O799        O  0.69615596  0.63829564  0.15230258    -0.91000
O800        O  0.61516626  0.62122656  0.21472302    -0.76900
O801        O  0.61485915  0.64985841  0.13067521    -0.86400
O802        O  0.64662048  0.61210667  0.14813980    -0.86100
O803        O  0.64792359  0.66408557  0.06224274    -0.72900
O804        O  0.67640486  0.62933787  0.08144939    -0.85000
Zr805      Zr  0.61336832  0.59965132  0.01477621     2.26400
Zr806      Zr  0.60602125  0.66118635  0.05764133     2.06300
Zr807      Zr  0.66498662  0.58942598  0.09288717     2.10000
Zr808      Zr  0.60516815  0.60957127  0.14247943     1.78800
O809        O  0.70002815  0.57689178  0.05449209    -0.93800
O810        O  0.56927112  0.62917737  0.16542616    -0.41600
O811        O  0.62318695  0.58685401  0.08667233    -0.78300
O812        O  0.59420215  0.62139384  0.07181384    -0.97000
O813        O  0.62487257  0.63913214  0.00227694    -0.90300
O814        O  0.65520830  0.60048107  0.02040823    -0.93100
C815        C  0.62931039  0.63596139  0.23197267     1.00700
C816        C  0.70675740  0.61833958  0.15380041     1.13600
C817        C  0.63054421  0.70455112  0.10948532     1.04400
O818        O  0.57067302  0.68453407  0.06770044    -0.95300
O819        O  0.57121379  0.65132819  0.01663653    -0.91000
O820        O  0.57335322  0.61267044  0.99884980    -0.84100
C821        C  0.56236749  0.63237876  0.00110522     1.11000
O822        O  0.70361440  0.66116704  0.01754549    -0.97200
Zr823      Zr  0.66649891  0.64031561  0.00923413     1.88900
O824        O  0.62344187  0.60843194  0.93896221    -0.73900
O825        O  0.61518695  0.68986300  0.00183895    -0.53100
O826        O  0.66818088  0.67870659  0.97454876    -0.97800
O827        O  0.69830418  0.61829053  0.97544857    -0.55000
O828        O  0.65248902  0.63554976  0.93687114    -0.74400
C829        C  0.63693676  0.62281357  0.91846238     0.98000
O830        O  0.59035076  0.57011587  0.97592956    -0.63200
O831        O  0.66762807  0.55901839  0.14809727    -0.58000
O832        O  0.62159753  0.55766266  0.02189443    -0.94700
O833        O  0.65324807  0.55148574  0.06491653    -0.93100
O834        O  0.60829693  0.57341214  0.18416223    -0.93500
O835        O  0.57143717  0.58323124  0.13924776    -0.92300
C836        C  0.63662319  0.54414546  0.04041594     1.16800
H837        H  0.65220840  0.60683561  0.17589404     0.32700
H838        H  0.57740098  0.61962441  0.07287696     0.43600
H839        H  0.66209909  0.58984415  0.99970641     0.37100
H840        H  0.65321558  0.67960923  0.05435061     0.33600
H841        H  0.57226429  0.63440442  0.19541504     0.25400
H842        H  0.61115486  0.68191134  0.97436047     0.31300
H843        H  0.67618815  0.67592763  0.94667323     0.37200
H844        H  0.61347377  0.56135114  0.16316094     0.31700
H845        H  0.68349575  0.55224865  0.14455754     0.30600
H846        H  0.70922642  0.59152044  0.05045934     0.32200
H847        H  0.70563787  0.62953668  0.95514484     0.31200
H848        H  0.57130510  0.57727763  0.10919920     0.35200
H849        H  0.57614241  0.56740497  0.99362124     0.27900
H850        H  0.67236374  0.68931901  0.19227181     0.32200
H851        H  0.71288967  0.65143056  0.03775297     0.35000
H852        H  0.66831521  0.56751799  0.17597614     0.27600
H853        H  0.58460714  0.57798715  0.94948232     0.40500
H854        H  0.56140290  0.67586028  0.08951889     0.30600
H855        H  0.56873997  0.64390798  0.14848014     0.38200
H856        H  0.69061689  0.60660240  0.95638596     0.30000
H857        H  0.60306521  0.70216894  0.00507484     0.30100
H858        H  0.69070754  0.68828008  0.15443362     0.30400
Zr859      Zr  0.65800441  0.65274508  0.63616257     2.17500
O860        O  0.68535918  0.67732477  0.67691224    -0.52000
O861        O  0.64461967  0.64775954  0.71093603    -0.75200
O862        O  0.65199080  0.69539886  0.62547829    -0.82000
O863        O  0.69886038  0.59820448  0.63437506    -0.83700
O864        O  0.61379027  0.69451739  0.61264527    -0.79300
O865        O  0.69680661  0.63697749  0.65236239    -0.91000
O866        O  0.61606459  0.62007149  0.71333965    -0.76900
O867        O  0.61615331  0.65128758  0.63125746    -0.86400
O868        O  0.64725134  0.61236980  0.64530904    -0.86100
O869        O  0.64926615  0.66635657  0.56366676    -0.72900
O870        O  0.67726746  0.63038163  0.58029045    -0.85000
Zr871      Zr  0.61366099  0.60364044  0.51157646     2.26400
Zr872      Zr  0.60726130  0.66435953  0.55921162     2.06300
Zr873      Zr  0.66500033  0.59044192  0.58826243     2.10000
Zr874      Zr  0.60573563  0.61095444  0.63989791     1.78800
O875        O  0.69933715  0.57640888  0.54938972    -0.93800
O876        O  0.57051700  0.63132482  0.66395583    -0.41600
O877        O  0.62317067  0.58907159  0.58231351    -0.78300
O878        O  0.59495761  0.62437063  0.57012397    -0.97000
O879        O  0.62594893  0.64326016  0.50211060    -0.90300
O880        O  0.65552294  0.60365273  0.51700565    -0.93100
C881        C  0.63063539  0.63402312  0.73167496     1.00700
C882        C  0.70729858  0.61697834  0.65168226     1.13600
C883        C  0.63307992  0.70583085  0.61372621     1.04400
O884        O  0.57194740  0.68688768  0.57444275    -0.95300
O885        O  0.57171598  0.65593779  0.51939419    -0.91000
O886        O  0.57406694  0.61826592  0.49553058    -0.84100
C887        C  0.56292164  0.63773077  0.50103561     1.11000
O888        O  0.70468783  0.66359989  0.52350611    -0.97200
Zr889      Zr  0.66768680  0.64346516  0.50929494     1.88900
O890        O  0.62447454  0.61347524  0.43711508    -0.73900
O891        O  0.61431574  0.69529078  0.50638666    -0.53100
O892        O  0.66929621  0.68217860  0.47577104    -0.97800
O893        O  0.70042776  0.62269893  0.47587891    -0.55000
O894        O  0.65551272  0.63833685  0.43602525    -0.74400
C895        C  0.63931099  0.62667641  0.41721524     0.98000
O896        O  0.59003872  0.57465666  0.47267347    -0.63200
O897        O  0.66559759  0.55835834  0.64024805    -0.58000
O898        O  0.62071396  0.56115586  0.51340430    -0.94700
O899        O  0.65199571  0.55373354  0.55650563    -0.93100
O900        O  0.60766813  0.57346258  0.67754294    -0.93500
O901        O  0.57095347  0.58610921  0.63572471    -0.92300
C902        C  0.63546021  0.54703773  0.53117716     1.16800
H903        H  0.65277706  0.60628256  0.67253703     0.32700
H904        H  0.57815857  0.62258391  0.57082842     0.43600
H905        H  0.66225697  0.59350663  0.49531237     0.37100
H906        H  0.65480596  0.68194026  0.55679035     0.33600
H907        H  0.57597212  0.64236668  0.68659231     0.25400
H908        H  0.61444705  0.68716325  0.47811416     0.31300
H909        H  0.68073430  0.68053302  0.45194456     0.37200
H910        H  0.61735560  0.56329767  0.65873424     0.31700
H911        H  0.67955607  0.54896120  0.63236937     0.30600
H912        H  0.70945801  0.59047703  0.54623723     0.32200
H913        H  0.70729994  0.63418079  0.45546979     0.31200
H914        H  0.57368268  0.57588105  0.61032843     0.35200
H915        H  0.57510987  0.57333146  0.48881267     0.27900
H916        H  0.67555103  0.68758168  0.69535663     0.32200
H917        H  0.70236459  0.67146741  0.55171389     0.35000
H918        H  0.66974146  0.56572570  0.66820268     0.27600
H919        H  0.58576955  0.58223464  0.44502513     0.40500
H920        H  0.56593454  0.68036416  0.60188844     0.30600
H921        H  0.56605724  0.64156691  0.63951439     0.38200
H922        H  0.69327515  0.61058456  0.45700538     0.30000
H923        H  0.59964371  0.70457118  0.50610561     0.30100
H924        H  0.69272877  0.68800647  0.65563595     0.30400
Zr925      Zr  0.84936596  0.65215024  0.25449800     2.17500
O926        O  0.82367330  0.67892234  0.21521620    -0.52000
O927        O  0.86195883  0.64726646  0.17930588    -0.75200
O928        O  0.85721068  0.69429608  0.26715224    -0.82000
O929        O  0.80658366  0.59996348  0.25190136    -0.83700
O930        O  0.89528970  0.69291482  0.28252270    -0.79300
O931        O  0.81030116  0.63863152  0.23516110    -0.91000
O932        O  0.88892274  0.61812870  0.17667927    -0.76900
O933        O  0.89106653  0.64908621  0.25977173    -0.86400
O934        O  0.85822837  0.61146014  0.24359792    -0.86100
O935        O  0.85813913  0.66455319  0.32769083    -0.72900
O936        O  0.82872254  0.62993935  0.30895136    -0.85000
Zr937      Zr  0.89132474  0.59970315  0.37663584     2.26400
Zr938      Zr  0.89983248  0.66081845  0.33274186     2.06300
Zr939      Zr  0.83930900  0.58962394  0.29943364     2.10000
Zr940      Zr  0.89961140  0.60843402  0.24908086     1.78800
O941        O  0.80522847  0.57729643  0.34100650    -0.93800
O942        O  0.93456166  0.62784437  0.22106528    -0.41600
O943        O  0.88110048  0.58645068  0.30522463    -0.78300
O944        O  0.91075987  0.62069992  0.31922437    -0.97000
O945        O  0.88039603  0.63956694  0.38840023    -0.90300
O946        O  0.84939608  0.60145735  0.37135914    -0.93100
C947        C  0.87516737  0.63280882  0.15860593     1.00700
C948        C  0.79917729  0.61897854  0.23392662     1.13600
C949        C  0.87624074  0.70448409  0.27927463     1.04400
O950        O  0.93466433  0.68546197  0.32684500    -0.95300
O951        O  0.93542939  0.64976900  0.36968143    -0.91000
O952        O  0.93190835  0.61207342  0.39234219    -0.84100
C953        C  0.94382359  0.63112749  0.38697154     1.11000
O954        O  0.80448453  0.66620651  0.36755259    -0.97200
Zr955      Zr  0.83871535  0.64159176  0.38075183     1.88900
O956        O  0.88055961  0.60875646  0.45165193    -0.73900
O957        O  0.89125434  0.68772757  0.39181269    -0.53100
O958        O  0.83761200  0.67858457  0.42061024    -0.97800
O959        O  0.80402356  0.62092979  0.40705337    -0.55000
O960        O  0.85015730  0.63428698  0.45390595    -0.74400
C961        C  0.86591704  0.62187457  0.47220220     0.98000
O962        O  0.91323955  0.56952050  0.41527860    -0.63200
O963        O  0.83424027  0.55792327  0.24715124    -0.58000
O964        O  0.88354661  0.55740221  0.37051489    -0.94700
O965        O  0.85190769  0.55172482  0.32695795    -0.93100
O966        O  0.89643108  0.57020455  0.21391265    -0.93500
O967        O  0.93518744  0.58480600  0.25058942    -0.92300
C968        C  0.86849745  0.54411487  0.35126639     1.16800
H969        H  0.85238482  0.60582687  0.21620806     0.32700
H970        H  0.92744487  0.61830071  0.31768488     0.43600
H971        H  0.84221508  0.59135589  0.39262456     0.37100
H972        H  0.85330110  0.68027431  0.33524292     0.33600
H973        H  0.92862653  0.64109456  0.20351906     0.25400
H974        H  0.90528314  0.68694638  0.41060371     0.31300
H975        H  0.82574225  0.67614324  0.44348976     0.37200
H976        H  0.88099818  0.56396885  0.22303263     0.31700
H977        H  0.81811289  0.55200335  0.25198595     0.30600
H978        H  0.79947331  0.56298229  0.32610340     0.32200
H979        H  0.79532729  0.63278604  0.42410305     0.31200
H980        H  0.93577186  0.57823773  0.28013480     0.35200
H981        H  0.92741991  0.56652663  0.39769675     0.27900
H982        H  0.83397812  0.68982322  0.19904048     0.32200
H983        H  0.80880994  0.67603203  0.34242332     0.35000
H984        H  0.83359202  0.56571873  0.21864391     0.27600
H985        H  0.91908340  0.57719773  0.44191737     0.40500
H986        H  0.94134845  0.68162111  0.29821579     0.30600
H987        H  0.94187572  0.63545996  0.24651249     0.38200
H988        H  0.80990599  0.60973366  0.42892908     0.30000
H989        H  0.89198614  0.70357994  0.37878643     0.30100
H990        H  0.81580755  0.68871632  0.23732296     0.30400
Zr991      Zr  0.84814506  0.64874438  0.75420913     2.17500
O992        O  0.82105443  0.67264152  0.71206338    -0.52000
O993        O  0.86110784  0.64294535  0.67949452    -0.75200
O994        O  0.85554010  0.69144271  0.76270588    -0.82000
O995        O  0.80456445  0.59690451  0.76087042    -0.83700
O996        O  0.89397132  0.69069413  0.77468901    -0.79300
O997        O  0.80874257  0.63473831  0.73883841    -0.91000
O998        O  0.88829895  0.61400913  0.67628458    -0.76900
O999        O  0.88982867  0.64550649  0.75634861    -0.86400
O1000       O  0.85692174  0.60777714  0.74645236    -0.86100
O1001       O  0.85864660  0.66338284  0.82512543    -0.72900
O1002       O  0.82869188  0.62822160  0.81231191    -0.85000
Zr1003     Zr  0.89234305  0.60030535  0.87776412     2.26400
Zr1004     Zr  0.90054849  0.65985705  0.82652583     2.06300
Zr1005     Zr  0.83889713  0.58760681  0.80555496     2.10000
Zr1006     Zr  0.89849269  0.60469884  0.74943085     1.78800
O1007       O  0.80593439  0.57410595  0.84893747    -0.93800
O1008       O  0.93384782  0.62185810  0.71838125    -0.41600
O1009       O  0.88074399  0.58468659  0.80870701    -0.78300
O1010       O  0.91118240  0.61939077  0.81753400    -0.97000
O1011       O  0.88212953  0.64047356  0.88584991    -0.90300
O1012       O  0.85042111  0.60179818  0.87542875    -0.93100
C1013       C  0.87461831  0.62888176  0.65851158     1.00700
C1014       C  0.79714634  0.61537796  0.74110851     1.13600
C1015       C  0.87475540  0.70201354  0.77286333     1.04400
O1016       O  0.93677804  0.67736745  0.80014906    -0.95300
O1017       O  0.93519859  0.65205444  0.86857635    -0.91000
O1018       O  0.93209226  0.61456265  0.89268906    -0.84100
C1019       C  0.94348167  0.63389951  0.88750911     1.11000
O1020       O  0.80705201  0.66814018  0.86864199    -0.97200
Zr1021     Zr  0.84037052  0.64229448  0.88188069     1.88900
O1022       O  0.88190482  0.60979876  0.95248425    -0.73900
O1023       O  0.89815884  0.69183475  0.87876562    -0.53100
O1024       O  0.84530499  0.67991651  0.91875343    -0.97800
O1025       O  0.80504012  0.62519939  0.91350324    -0.55000
O1026       O  0.85165948  0.63552821  0.95510130    -0.74400
C1027       C  0.86756478  0.62318193  0.97303118     0.98000
O1028       O  0.91638154  0.57237998  0.91785705    -0.63200
O1029       O  0.83348111  0.55500115  0.75532991    -0.58000
O1030       O  0.88578667  0.55792952  0.87495191    -0.94700
O1031       O  0.85301992  0.55065450  0.83553927    -0.93100
O1032       O  0.89372711  0.56679943  0.71362690    -0.93500
O1033       O  0.93266970  0.57947145  0.75792636    -0.92300
C1034       C  0.87057663  0.54383545  0.85842706     1.16800
H1035       H  0.85078466  0.60165254  0.71962724     0.32700
H1036       H  0.92795461  0.61731335  0.81668914     0.43600
H1037       H  0.84379615  0.59232144  0.89820999     0.37100
H1038       H  0.85379789  0.67921010  0.83177035     0.33600
H1039       H  0.93609739  0.61340210  0.69073774     0.25400
H1040       H  0.91211088  0.70170566  0.87281329     0.31300
H1041       H  0.83482837  0.67914913  0.94417419     0.37200
H1042       H  0.90431053  0.56753938  0.68834025     0.31700
H1043       H  0.81711780  0.54971221  0.75996259     0.30600
H1044       H  0.79529625  0.58781010  0.85057610     0.32200
H1045       H  0.80235778  0.63438558  0.94021296     0.31200
H1046       H  0.92908927  0.56971256  0.78352825     0.35200
H1047       H  0.93075128  0.56996490  0.90047777     0.27900
H1048       H  0.83099466  0.68230615  0.69279283     0.32200
H1049       H  0.79995793  0.67128754  0.89720720     0.35000
H1050       H  0.83338554  0.56220957  0.72628968     0.27600
H1051       H  0.92169325  0.58073305  0.94419104     0.40500
H1052       H  0.94072966  0.66804409  0.77414831     0.30600
H1053       H  0.92931003  0.63797971  0.70977896     0.38200
H1054       H  0.80960295  0.60943067  0.92395123     0.30000
H1055       H  0.88469379  0.70152933  0.86947461     0.30100
H1056       H  0.81402687  0.68394012  0.73265616     0.30400
Zr1057     Zr  0.65870411  0.84802451  0.00353820     2.17500
O1058       O  0.68617151  0.82271616  0.96487522    -0.52000
O1059       O  0.64715766  0.85271661  0.92770205    -0.75200
O1060       O  0.65106642  0.80576360  0.01396126    -0.82000
O1061       O  0.70094297  0.90084017  0.00510119    -0.83700
O1062       O  0.61262460  0.80767123  0.02513804    -0.79300
O1063       O  0.69785429  0.86222962  0.98805189    -0.91000
O1064       O  0.62035687  0.88195170  0.92252126    -0.76900
O1065       O  0.61698405  0.85104295  0.00530264    -0.86400
O1066       O  0.65001583  0.88866201  0.99241082    -0.86100
O1067       O  0.64805881  0.83520833  0.07561635    -0.72900
O1068       O  0.67777860  0.86999555  0.06040362    -0.85000
Zr1069     Zr  0.61389434  0.89987234  0.12291883     2.26400
Zr1070     Zr  0.60611363  0.83883351  0.07679558     2.06300
Zr1071     Zr  0.66740424  0.91030805  0.05035689     2.10000
Zr1072     Zr  0.60856336  0.89162318  0.99443657     1.78800
O1073       O  0.70103252  0.92177038  0.09411031    -0.93800
O1074       O  0.57498744  0.87235054  0.96055944    -0.41600
O1075       O  0.62559743  0.91342558  0.05263359    -0.78300
O1076       O  0.59568790  0.87902559  0.06344208    -0.97000
O1077       O  0.62417870  0.85991720  0.13481143    -0.90300
O1078       O  0.65576204  0.89818451  0.12109632    -0.93100
C1079       C  0.63437474  0.86701732  0.90584463     1.00700
C1080       C  0.70883642  0.88196786  0.98765838     1.13600
C1081       C  0.63157167  0.79587529  0.02414968     1.04400
O1082       O  0.57028522  0.81781658  0.05779596    -0.95300
O1083       O  0.57041067  0.84921538  0.11475840    -0.91000
O1084       O  0.57322284  0.88761192  0.13438955    -0.84100
C1085       C  0.56166975  0.86831033  0.12987682     1.11000
O1086       O  0.70077726  0.83357539  0.12199069    -0.97200
Zr1087     Zr  0.66597182  0.85798923  0.13106038     1.88900
O1088       O  0.62303453  0.89087459  0.19872554    -0.73900
O1089       O  0.61096665  0.80850839  0.13147121    -0.53100
O1090       O  0.66036668  0.82140066  0.17069319    -0.97800
O1091       O  0.70090279  0.87586855  0.16305847    -0.55000
O1092       O  0.65512686  0.86782442  0.20331828    -0.74400
C1093       C  0.63831646  0.87924735  0.22055466     0.98000
O1094       O  0.59155686  0.92916957  0.16320131    -0.63200
O1095       O  0.67390285  0.94247364  0.99979122    -0.58000
O1096       O  0.62169300  0.94221176  0.11831988    -0.94700
O1097       O  0.65400763  0.94808463  0.07698261    -0.93100
O1098       O  0.61377967  0.92947395  0.95905780    -0.93500
O1099       O  0.57355844  0.91601834  0.99635122    -0.92300
C1100       C  0.63713123  0.95562946  0.10060567     1.16800
H1101       H  0.65644077  0.89433093  0.96554375     0.32700
H1102       H  0.57899832  0.88115110  0.06072500     0.43600
H1103       H  0.66235790  0.90829267  0.14307008     0.37100
H1104       H  0.65279961  0.81945664  0.08307483     0.33600
H1105       H  0.58103682  0.85714737  0.94966576     0.25400
H1106       H  0.60049797  0.81340287  0.15530298     0.31300
H1107       H  0.67108589  0.82251462  0.19577675     0.37200
H1108       H  0.62158273  0.93957564  0.98084115     0.31700
H1109       H  0.68964768  0.94871566  0.00706968     0.30600
H1110       H  0.70672302  0.93655757  0.08088875     0.32200
H1111       H  0.70306469  0.86760200  0.19087323     0.31200
H1112       H  0.57419789  0.92390890  0.02484091     0.35200
H1113       H  0.57791106  0.93310357  0.14479610     0.27900
H1114       H  0.67648729  0.81205783  0.94684991     0.32200
H1115       H  0.70626003  0.82966957  0.15143225     0.35000
H1116       H  0.67583035  0.93494592  0.97118995     0.27600
H1117       H  0.58479280  0.92071368  0.18817550     0.40500
H1118       H  0.56733510  0.82199838  0.02726400     0.30600
H1119       H  0.56455392  0.86797365  0.98477854     0.38200
H1120       H  0.69632574  0.89200329  0.17149241     0.30000
H1121       H  0.60327485  0.79440265  0.11907040     0.30100
H1122       H  0.69342806  0.81249377  0.98699321     0.30400
Zr1123     Zr  0.65913834  0.85031269  0.50345774     2.17500
O1124       O  0.68229761  0.82479273  0.45660019    -0.52000
O1125       O  0.64563086  0.85637114  0.42885482    -0.75200
O1126       O  0.65231356  0.80770387  0.51629232    -0.82000
O1127       O  0.70218741  0.90242617  0.50362101    -0.83700
O1128       O  0.61414383  0.80909252  0.53053863    -0.79300
O1129       O  0.69829206  0.86386288  0.48630025    -0.91000
O1130       O  0.61873684  0.88545677  0.42596041    -0.76900
O1131       O  0.61760356  0.85378502  0.50853352    -0.86400
O1132       O  0.65056856  0.89121456  0.49417960    -0.86100
O1133       O  0.65069545  0.83754444  0.57640379    -0.72900
O1134       O  0.68001253  0.87197914  0.55887325    -0.85000
Zr1135     Zr  0.61763918  0.90198074  0.62642367     2.26400
Zr1136     Zr  0.60891844  0.84111414  0.58069210     2.06300
Zr1137     Zr  0.66974502  0.91248362  0.55072105     2.10000
Zr1138     Zr  0.60915820  0.89456880  0.49934994     1.78800
O1139       O  0.70349289  0.92458711  0.59370690    -0.93800
O1140       O  0.57325626  0.87633893  0.47262792    -0.41600
O1141       O  0.62814654  0.91574102  0.55584213    -0.78300
O1142       O  0.59788578  0.88125741  0.56883749    -0.97000
O1143       O  0.62827558  0.86204703  0.63721486    -0.90300
O1144       O  0.65954397  0.90036940  0.62214352    -0.93100
C1145       C  0.63235443  0.87062740  0.40783401     1.00700
C1146       C  0.70939675  0.88353167  0.48530607     1.13600
C1147       C  0.63317155  0.79750013  0.52806320     1.04400
O1148       O  0.57241412  0.82082620  0.56382575    -0.95300
O1149       O  0.57475351  0.85066334  0.62303648    -0.91000
O1150       O  0.57763178  0.88899072  0.64290515    -0.84100
C1151       C  0.56632208  0.86944114  0.63974580     1.11000
O1152       O  0.70651665  0.83856161  0.62170311    -0.97200
Zr1153     Zr  0.66992542  0.86015327  0.63064215     1.88900
O1154       O  0.62832991  0.89386877  0.70132578    -0.73900
O1155       O  0.61511663  0.81089564  0.63503848    -0.53100
O1156       O  0.66997887  0.82149742  0.66452878    -0.97800
O1157       O  0.70256534  0.88089939  0.66506916    -0.55000
O1158       O  0.65646005  0.86583094  0.70313484    -0.74400
C1159       C  0.64150779  0.87923111  0.72143182     0.98000
O1160       O  0.59631663  0.93193101  0.66691559    -0.63200
O1161       O  0.67597902  0.94450483  0.49973772    -0.58000
O1162       O  0.62415084  0.94416044  0.61824391    -0.94700
O1163       O  0.65607845  0.95040273  0.57618596    -0.93100
O1164       O  0.61156718  0.93177573  0.46072793    -0.93500
O1165       O  0.57642624  0.92129177  0.51076656    -0.92300
C1166       C  0.63900825  0.95777376  0.59951725     1.16800
H1167       H  0.65634916  0.89697790  0.46688938     0.32700
H1168       H  0.58111074  0.88325112  0.56809360     0.43600
H1169       H  0.66659346  0.91042299  0.64372394     0.37100
H1170       H  0.65563236  0.82186020  0.58382566     0.33600
H1171       H  0.57194444  0.88163507  0.44231002     0.25400
H1172       H  0.60663402  0.81670454  0.66078554     0.31300
H1173       H  0.67799142  0.82383672  0.69257620     0.37200
H1174       H  0.62637580  0.93905623  0.47086144     0.31700
H1175       H  0.69194282  0.95045797  0.50616096     0.30600
H1176       H  0.71453752  0.91121845  0.59172311     0.32200
H1177       H  0.71063726  0.86890146  0.68276651     0.31200
H1178       H  0.58084751  0.93046409  0.53674845     0.35200
H1179       H  0.58153930  0.93451798  0.65079226     0.27900
H1180       H  0.67085630  0.81454059  0.44149965     0.32200
H1181       H  0.71483319  0.84666919  0.59794772     0.35000
H1182       H  0.67728650  0.93694912  0.47103908     0.27600
H1183       H  0.59137094  0.92426036  0.69404805     0.40500
H1184       H  0.56527231  0.83031084  0.54051229     0.30600
H1185       H  0.57681281  0.85934427  0.47049125     0.38200
H1186       H  0.69531406  0.89147308  0.68664454     0.30000
H1187       H  0.60567974  0.79733235  0.62487700     0.30100
H1188       H  0.69109530  0.81416152  0.47599083     0.30400
Zr1189     Zr  0.84867765  0.84861242  0.38230307     2.17500
O1190       O  0.82374396  0.82346085  0.42674295    -0.52000
O1191       O  0.86039704  0.85636214  0.45742058    -0.75200
O1192       O  0.85603813  0.80626188  0.37289253    -0.82000
O1193       O  0.80604769  0.90070365  0.37757631    -0.83700
O1194       O  0.89426418  0.80867123  0.36084137    -0.79300
O1195       O  0.80893985  0.86196689  0.39438959    -0.91000
O1196       O  0.88936859  0.88367078  0.45977075    -0.76900
O1197       O  0.89031687  0.85170145  0.37774337    -0.86400
O1198       O  0.85787107  0.88934215  0.39067985    -0.86100
O1199       O  0.85810029  0.83463870  0.31024714    -0.72900
O1200       O  0.82872206  0.86955821  0.32555046    -0.85000
Zr1201     Zr  0.89142624  0.89830998  0.25739123     2.26400
Zr1202     Zr  0.89993354  0.83825220  0.30641647     2.06300
Zr1203     Zr  0.83960242  0.90995784  0.33269453     2.10000
Zr1204     Zr  0.89927917  0.89237359  0.38599587     1.78800
O1205       O  0.80652767  0.92225803  0.28847703    -0.93800
O1206       O  0.93433623  0.87393410  0.41556051    -0.41600
O1207       O  0.88125673  0.91282704  0.32763801    -0.78300
O1208       O  0.91073251  0.87867319  0.31657738    -0.97000
O1209       O  0.88072969  0.85810400  0.24855861    -0.90300
O1210       O  0.84952456  0.89661772  0.26170084    -0.93100
C1211       C  0.87436496  0.87022403  0.47805149     1.00700
C1212       C  0.79797737  0.88164565  0.39408074     1.13600
C1213       C  0.87547944  0.79660935  0.36203721     1.04400
O1214       O  0.93631887  0.81903601  0.32710869    -0.95300
O1215       O  0.93444854  0.84675916  0.26430373    -0.91000
O1216       O  0.93148609  0.88471772  0.24193914    -0.84100
C1217       C  0.94285061  0.86533664  0.24687412     1.11000
O1218       O  0.80490896  0.83134778  0.26857205    -0.97200
Zr1219     Zr  0.83900655  0.85623072  0.25491899     1.88900
O1220       O  0.88063314  0.88804261  0.18326031    -0.73900
O1221       O  0.89508044  0.80605755  0.25525246    -0.53100
O1222       O  0.83768211  0.81884253  0.21635655    -0.97800
O1223       O  0.80521968  0.87662074  0.22464351    -0.55000
O1224       O  0.85086015  0.86164389  0.18147080    -0.74400
C1225       C  0.86660552  0.87410967  0.16308512     0.98000
O1226       O  0.91426131  0.92857104  0.22057542    -0.63200
O1227       O  0.83386902  0.94194126  0.38417179    -0.58000
O1228       O  0.88299727  0.94064395  0.25836025    -0.94700
O1229       O  0.85403481  0.94736404  0.30692782    -0.93100
O1230       O  0.89289375  0.93120641  0.41711885    -0.93500
O1231       O  0.93357969  0.91778043  0.38023336    -0.92300
C1232       C  0.86925816  0.95446562  0.27943459     1.16800
H1233       H  0.85195264  0.89556699  0.41753344     0.32700
H1234       H  0.92749627  0.88081943  0.31717202     0.43600
H1235       H  0.84237501  0.90616210  0.23955865     0.37100
H1236       H  0.85316082  0.81879780  0.30375298     0.33600
H1237       H  0.92895544  0.85852158  0.42667237     0.25400
H1238       H  0.89952613  0.81287360  0.22703520     0.31300
H1239       H  0.85046129  0.80926352  0.22880221     0.37200
H1240       H  0.89632190  0.92944811  0.44825818     0.31700
H1241       H  0.81763119  0.94744014  0.37916125     0.30600
H1242       H  0.80304803  0.93846120  0.29827051     0.32200
H1243       H  0.79278870  0.87534955  0.24680225     0.31200
H1244       H  0.93360521  0.92302080  0.34977503     0.35200
H1245       H  0.92926626  0.92977544  0.23656956     0.27900
H1246       H  0.83449851  0.81345491  0.44378356     0.32200
H1247       H  0.79733424  0.83817710  0.29444310     0.35000
H1248       H  0.83340750  0.93440149  0.41292376     0.27600
H1249       H  0.91849897  0.92172281  0.19227697     0.40500
H1250       H  0.94155759  0.82764513  0.35321192     0.30600
H1251       H  0.94402354  0.86994470  0.39009304     0.38200
H1252       H  0.79980912  0.86635230  0.20075964     0.30000
H1253       H  0.90796022  0.79503964  0.26217261     0.30100
H1254       H  0.81571904  0.81257369  0.40653861     0.30400
Zr1255     Zr  0.84902875  0.84703547  0.87933216     2.17500
O1256       O  0.82276279  0.81975704  0.91634158    -0.52000
O1257       O  0.86090836  0.85050954  0.95505578    -0.75200
O1258       O  0.85744437  0.80507333  0.86486874    -0.82000
O1259       O  0.80614847  0.89920459  0.88151424    -0.83700
O1260       O  0.89579603  0.80653961  0.85097410    -0.79300
O1261       O  0.80965756  0.86033103  0.89691623    -0.91000
O1262       O  0.88762117  0.87985151  0.96187979    -0.76900
O1263       O  0.89069265  0.85088048  0.87747757    -0.86400
O1264       O  0.85744487  0.88765537  0.89299424    -0.86100
O1265       O  0.85931155  0.83595691  0.80626171    -0.72900
O1266       O  0.82934312  0.86988372  0.82473544    -0.85000
Zr1267     Zr  0.89251221  0.90178256  0.76258088     2.26400
Zr1268     Zr  0.90112385  0.84025306  0.80491686     2.06300
Zr1269     Zr  0.83945275  0.91016497  0.83708420     2.10000
Zr1270     Zr  0.89885008  0.89142629  0.89051734     1.78800
O1271       O  0.80401405  0.92109902  0.79817822    -0.93800
O1272       O  0.93362727  0.87135038  0.91759711    -0.41600
O1273       O  0.88130816  0.91420883  0.83410731    -0.78300
O1274       O  0.91119751  0.88035569  0.82032833    -0.97000
O1275       O  0.88248747  0.86188135  0.74867196    -0.90300
O1276       O  0.85067966  0.89958031  0.76520958    -0.93100
C1277       C  0.87372776  0.86447210  0.97772254     1.00700
C1278       C  0.79846731  0.87991983  0.89783448     1.13600
C1279       C  0.87664611  0.79503167  0.85326366     1.04400
O1280       O  0.93722029  0.81940530  0.82202512    -0.95300
O1281       O  0.93619150  0.85203863  0.76680434    -0.91000
O1282       O  0.93297859  0.89024015  0.74697366    -0.84100
C1283       C  0.94467971  0.87103869  0.75082513     1.11000
O1284       O  0.80582625  0.83502236  0.76038944    -0.97200
Zr1285     Zr  0.84072990  0.85955269  0.75306243     1.88900
O1286       O  0.88311965  0.89412134  0.68631539    -0.73900
O1287       O  0.89633203  0.81154708  0.74717028    -0.53100
O1288       O  0.84261790  0.82387187  0.70953704    -0.97800
O1289       O  0.80757259  0.88155211  0.72441737    -0.55000
O1290       O  0.85214469  0.86933731  0.68115414    -0.74400
C1291       C  0.86845582  0.88168109  0.66432559     0.98000
O1292       O  0.92016530  0.92916543  0.72941338    -0.63200
O1293       O  0.83471946  0.94112112  0.89086311    -0.58000
O1294       O  0.88122949  0.94329612  0.76540810    -0.94700
O1295       O  0.84956845  0.94852999  0.80856808    -0.93100
O1296       O  0.89441831  0.92747245  0.93223735    -0.93500
O1297       O  0.93272839  0.91759591  0.89022704    -0.92300
C1298       C  0.86557100  0.95631483  0.78323479     1.16800
H1299       H  0.85114408  0.89269188  0.92039373     0.32700
H1300       H  0.92789558  0.88284082  0.82200713     0.43600
H1301       H  0.84364127  0.90983597  0.74404195     0.37100
H1302       H  0.85471332  0.82032286  0.79749607     0.33600
H1303       H  0.92763226  0.85920310  0.93763784     0.25400
H1304       H  0.90704680  0.81701336  0.72413861     0.31300
H1305       H  0.83202891  0.82678987  0.68477674     0.37200
H1306       H  0.88204092  0.93638301  0.91700429     0.31700
H1307       H  0.81896292  0.94771450  0.88513842     0.30600
H1308       H  0.80307015  0.93841575  0.80098213     0.32200
H1309       H  0.79595383  0.88184915  0.74812030     0.31200
H1310       H  0.92957861  0.92878120  0.86647088     0.35200
H1311       H  0.91123563  0.93830974  0.70778213     0.27900
H1312       H  0.83294937  0.80945467  0.93395708     0.32200
H1313       H  0.80145691  0.83618007  0.79123220     0.35000
H1314       H  0.83308949  0.93286259  0.91879264     0.27600
H1315       H  0.92468545  0.94057837  0.75215373     0.40500
H1316       H  0.94051032  0.82334501  0.85257364     0.30600
H1317       H  0.93963524  0.86232153  0.89262612     0.38200
H1318       H  0.80054274  0.87111235  0.70227920     0.30000
H1319       H  0.90376300  0.79706623  0.75836805     0.30100
H1320       H  0.81607398  0.80940354  0.89370107     0.30400
Zr1321     Zr  0.60098230  0.11020499  0.13748692     2.17500
O1322       O  0.57486113  0.08359713  0.09830708    -0.52000
O1323       O  0.61004010  0.12086987  0.06258916    -0.75200
O1324       O  0.55953178  0.12293001  0.13596872    -0.82000
O1325       O  0.64982803  0.06424644  0.15050691    -0.83700
O1326       O  0.55478497  0.15593013  0.17631382    -0.79300
O1327       O  0.61217856  0.06865352  0.12810564    -0.91000
O1328       O  0.63678915  0.15039417  0.06073381    -0.76900
O1329       O  0.60489491  0.15195322  0.14123021    -0.86400
O1330       O  0.64190972  0.11836522  0.13030700    -0.86100
O1331       O  0.58632564  0.12144659  0.20757964    -0.72900
O1332       O  0.62017454  0.09043960  0.19621037    -0.85000
Zr1333     Zr  0.65172956  0.15268013  0.26233953     2.26400
Zr1334     Zr  0.59164745  0.16338217  0.21161130     2.06300
Zr1335     Zr  0.66086447  0.09934149  0.18961297     2.10000
Zr1336     Zr  0.64563023  0.16010159  0.13434760     1.78800
O1337       O  0.67490485  0.06473559  0.22774146    -0.93800
O1338       O  0.62785640  0.19547929  0.10444144    -0.41600
O1339       O  0.66517259  0.14103934  0.19229521    -0.78300
O1340       O  0.63228853  0.17274849  0.20361356    -0.97000
O1341       O  0.61096851  0.14412965  0.26981171    -0.90300
O1342       O  0.64738774  0.11077275  0.25968810    -0.93100
C1343       C  0.62344159  0.13537263  0.04230520     1.00700
C1344       C  0.63093852  0.05631801  0.13323177     1.13600
C1345       C  0.54684996  0.13965157  0.15172727     1.04400
O1346       O  0.58186699  0.19873001  0.17131323    -0.95300
O1347       O  0.60068076  0.19692637  0.25755600    -0.91000
O1348       O  0.63832166  0.19235857  0.27993602    -0.84100
C1349       C  0.61926789  0.20433490  0.27682273     1.11000
O1350       O  0.58087249  0.06864816  0.25501152    -0.97200
Zr1351     Zr  0.60650222  0.10255107  0.26523672     1.88900
O1352       O  0.64454674  0.13992436  0.33710126    -0.73900
O1353       O  0.56027016  0.16671410  0.26469265    -0.53100
O1354       O  0.56864671  0.10690997  0.30065178    -0.97800
O1355       O  0.62259456  0.06688294  0.29707953    -0.55000
O1356       O  0.61389512  0.11448604  0.33796758    -0.74400
C1357       C  0.62884267  0.12768516  0.35693214     0.98000
O1358       O  0.67894142  0.17360337  0.30966997    -0.63200
O1359       O  0.69254352  0.09584654  0.13724563    -0.58000
O1360       O  0.69322495  0.14810339  0.23855859    -0.94700
O1361       O  0.69530095  0.10916905  0.23122272    -0.93100
O1362       O  0.68314735  0.15464324  0.09830790    -0.93500
O1363       O  0.67210954  0.19337151  0.14462499    -0.92300
C1364       C  0.70503502  0.12936134  0.22978681     1.16800
H1365       H  0.64821826  0.11215121  0.10374527     0.32700
H1366       H  0.63488099  0.18952112  0.20353767     0.43600
H1367       H  0.65630119  0.10321630  0.28224944     0.37100
H1368       H  0.57008185  0.11712323  0.21131246     0.33600
H1369       H  0.63880517  0.20068162  0.08157440     0.25400
H1370       H  0.55046747  0.17993267  0.25444430     0.31300
H1371       H  0.56909546  0.09574944  0.32513751     0.37200
H1372       H  0.68298653  0.16593355  0.07402447     0.31700
H1373       H  0.68516377  0.08940645  0.11081304     0.30600
H1374       H  0.68892849  0.05968823  0.21137417     0.32200
H1375       H  0.63291826  0.07229532  0.32082233     0.31200
H1376       H  0.68436147  0.18748963  0.16452026     0.35200
H1377       H  0.69022395  0.16160591  0.31981325     0.27900
H1378       H  0.56693100  0.09325417  0.07612157     0.32200
H1379       H  0.58262171  0.06439531  0.22418577     0.35000
H1380       H  0.69668439  0.11225321  0.12977099     0.27600
H1381       H  0.68815968  0.18405669  0.29056062     0.40500
H1382       H  0.56859876  0.20578079  0.18730811     0.30600
H1383       H  0.61382236  0.18989030  0.08857073     0.38200
H1384       H  0.63345354  0.06064175  0.27497530     0.30000
H1385       H  0.55038252  0.15254936  0.26045387     0.30100
H1386       H  0.56239247  0.07909901  0.11895673     0.30400
Zr1387     Zr  0.59614759  0.10985066  0.63859759     2.17500
O1388       O  0.57090901  0.08351191  0.59690356    -0.52000
O1389       O  0.60379955  0.12108526  0.56311060    -0.75200
O1390       O  0.55413575  0.11946348  0.64324579    -0.82000
O1391       O  0.64639448  0.06651252  0.64375648    -0.83700
O1392       O  0.54895889  0.15189953  0.68495959    -0.79300
O1393       O  0.60771737  0.06879736  0.62758178    -0.91000
O1394       O  0.63041333  0.15071361  0.56069529    -0.76900
O1395       O  0.59811762  0.15175010  0.64371971    -0.86400
O1396       O  0.63647777  0.11945629  0.62857062    -0.86100
O1397       O  0.58339561  0.11940774  0.71085523    -0.72900
O1398       O  0.61743725  0.09005851  0.69490519    -0.85000
Zr1399     Zr  0.64803821  0.15325330  0.76072203     2.26400
Zr1400     Zr  0.58642085  0.16141874  0.71619213     2.06300
Zr1401     Zr  0.65745738  0.10064966  0.68550134     2.10000
Zr1402     Zr  0.63834648  0.16141849  0.63376087     1.78800
O1403       O  0.67311717  0.07097362  0.73417834    -0.93800
O1404       O  0.61796470  0.19594175  0.60651276    -0.41600
O1405       O  0.65885341  0.14219379  0.68956558    -0.78300
O1406       O  0.62626248  0.17303544  0.70442193    -0.97000
O1407       O  0.60812730  0.14262810  0.77192556    -0.90300
O1408       O  0.64625430  0.11111793  0.75750893    -0.93100
C1409       C  0.61738259  0.13533214  0.54255473     1.00700
C1410       C  0.62731615  0.05766451  0.62908686     1.13600
C1411       C  0.54111809  0.13511760  0.66135914     1.04400
O1412       O  0.57082591  0.19660471  0.68208476    -0.95300
O1413       O  0.59461651  0.19499985  0.76263046    -0.91000
O1414       O  0.63318379  0.19213106  0.78048918    -0.84100
C1415       C  0.61344208  0.20309117  0.78001925     1.11000
O1416       O  0.57994058  0.06715044  0.75596452    -0.97200
Zr1417     Zr  0.60583966  0.10090805  0.76620304     1.88900
O1418       O  0.64396191  0.13970030  0.83535475    -0.73900
O1419       O  0.55826367  0.15985036  0.77518185    -0.53100
O1420       O  0.56907998  0.10118117  0.80624682    -0.97800
O1421       O  0.62595098  0.06616347  0.79353189    -0.55000
O1422       O  0.61422285  0.11324219  0.83882384    -0.74400
C1423       C  0.62942552  0.12674226  0.85640037     0.98000
O1424       O  0.67471915  0.17508874  0.80777520    -0.63200
O1425       O  0.68863087  0.08892969  0.63608685    -0.58000
O1426       O  0.68964149  0.15225445  0.73642623    -0.94700
O1427       O  0.69438848  0.12075873  0.69200360    -0.93100
O1428       O  0.67527325  0.16069404  0.59436004    -0.93500
O1429       O  0.66530155  0.19427257  0.64404518    -0.92300
C1430       C  0.70208184  0.13926464  0.71095544     1.16800
H1431       H  0.64262292  0.11353332  0.60166063     0.32700
H1432       H  0.62801672  0.18991710  0.70464552     0.43600
H1433       H  0.65623327  0.10418193  0.77919545     0.37100
H1434       H  0.56759637  0.11410999  0.71631463     0.33600
H1435       H  0.62926357  0.20341363  0.58650850     0.25400
H1436       H  0.54665389  0.17222586  0.76838612     0.31300
H1437       H  0.57121807  0.08948529  0.82956238     0.37200
H1438       H  0.67878210  0.14377474  0.59047250     0.31700
H1439       H  0.69132500  0.07199112  0.64152268     0.30600
H1440       H  0.66133622  0.05815360  0.73352167     0.32200
H1441       H  0.61388865  0.05733897  0.80983032     0.31200
H1442       H  0.67301962  0.19108751  0.67207009     0.35200
H1443       H  0.68665661  0.16361009  0.81740838     0.27900
H1444       H  0.56116872  0.09365137  0.57815120     0.32200
H1445       H  0.58411865  0.06074375  0.72726401     0.35000
H1446       H  0.68158905  0.08961745  0.60689682     0.27600
H1447       H  0.68325981  0.18624503  0.78894250     0.40500
H1448       H  0.58479725  0.20639119  0.67582805     0.30600
H1449       H  0.60548904  0.18961877  0.58747602     0.38200
H1450       H  0.63677163  0.07210416  0.81605251     0.30000
H1451       H  0.54965620  0.14486749  0.77101646     0.30100
H1452       H  0.55988235  0.07645437  0.61788697     0.30400
Zr1453     Zr  0.59643910  0.39376441  0.48824409     2.17500
O1454       O  0.57057183  0.42107438  0.52611645    -0.52000
O1455       O  0.60341713  0.38392783  0.56479192    -0.75200
O1456       O  0.55462933  0.38332460  0.48395218    -0.82000
O1457       O  0.64623062  0.43851623  0.47947371    -0.83700
O1458       O  0.55006009  0.35040449  0.44314026    -0.79300
O1459       O  0.60752607  0.43546483  0.49560231    -0.91000
O1460       O  0.62906806  0.35365664  0.56961642    -0.76900
O1461       O  0.59930823  0.35176281  0.48614036    -0.86400
O1462       O  0.63673290  0.38488014  0.50024992    -0.86100
O1463       O  0.58419726  0.38213941  0.41649915    -0.72900
O1464       O  0.61788125  0.41254601  0.43115227    -0.85000
Zr1465     Zr  0.65014453  0.34912607  0.37041112     2.26400
Zr1466     Zr  0.58816614  0.33998834  0.41446262     2.06300
Zr1467     Zr  0.65796963  0.40302370  0.44279498     2.10000
Zr1468     Zr  0.63963264  0.34300227  0.49746544     1.78800
O1469       O  0.67376041  0.43477506  0.39880889    -0.93800
O1470       O  0.62126824  0.30744620  0.52542775    -0.41600
O1471       O  0.66093540  0.36135173  0.44121859    -0.78300
O1472       O  0.62826903  0.32983452  0.42723653    -0.97000
O1473       O  0.60998754  0.35836052  0.35816988    -0.90300
O1474       O  0.64729409  0.39112012  0.37119551    -0.93100
C1475       C  0.61608926  0.36942735  0.58662098     1.00700
C1476       C  0.62688787  0.44714167  0.49317673     1.13600
C1477       C  0.54189929  0.36716140  0.46646464     1.04400
O1478       O  0.57451581  0.30575934  0.45440676    -0.95300
O1479       O  0.59829453  0.30592996  0.37002353    -0.91000
O1480       O  0.63656199  0.30985076  0.35126929    -0.84100
C1481       C  0.61711109  0.29837373  0.35182468     1.11000
O1482       O  0.58296938  0.43549061  0.36587084    -0.97200
Zr1483     Zr  0.60677367  0.40003050  0.36066577     1.88900
O1484       O  0.64541080  0.36044992  0.29433153    -0.73900
O1485       O  0.55982194  0.33486852  0.35632819    -0.53100
O1486       O  0.56952470  0.39550095  0.32285540    -0.97800
O1487       O  0.62567746  0.43448237  0.32919042    -0.55000
O1488       O  0.61595233  0.38701181  0.28924641    -0.74400
C1489       C  0.63085059  0.37298341  0.27250438     0.98000
O1490       O  0.67770919  0.32684163  0.32621594    -0.63200
O1491       O  0.68621979  0.41124464  0.50006912    -0.58000
O1492       O  0.69138137  0.35212337  0.39693243    -0.94700
O1493       O  0.69644529  0.38835026  0.42657292    -0.93100
O1494       O  0.67671170  0.34772147  0.53563315    -0.93500
O1495       O  0.66625477  0.30965380  0.49282128    -0.92300
C1496       C  0.70408050  0.36800810  0.41582897     1.16800
H1497       H  0.64234958  0.39122410  0.52725936     0.32700
H1498       H  0.63042514  0.31301165  0.42777520     0.43600
H1499       H  0.65730525  0.39813611  0.34961731     0.37100
H1500       H  0.56835322  0.38695629  0.41024084     0.33600
H1501       H  0.63069395  0.30325431  0.55112857     0.25400
H1502       H  0.54873957  0.32279849  0.36708866     0.31300
H1503       H  0.57052819  0.37999524  0.30838780     0.37200
H1504       H  0.68237209  0.36354934  0.52732158     0.31700
H1505       H  0.69334174  0.42656318  0.49234577     0.30600
H1506       H  0.68258025  0.44485021  0.41928593     0.32200
H1507       H  0.63666000  0.42832578  0.30721213     0.31200
H1508       H  0.67146335  0.30942054  0.46235250     0.35200
H1509       H  0.68930010  0.33846074  0.31560704     0.27900
H1510       H  0.56082435  0.41144552  0.54578543     0.32200
H1511       H  0.58069795  0.44095904  0.33583931     0.35000
H1512       H  0.67688655  0.41456515  0.52627557     0.27600
H1513       H  0.68651933  0.31665726  0.34638757     0.40500
H1514       H  0.58875416  0.29615666  0.45903657     0.30600
H1515       H  0.60605761  0.31271502  0.53735244     0.38200
H1516       H  0.63585444  0.44076971  0.35238805     0.30000
H1517       H  0.55063587  0.34961714  0.35599504     0.30100
H1518       H  0.55956883  0.42716176  0.50406642     0.30400
Zr1519     Zr  0.59794154  0.39239272  0.99056687     2.17500
O1520       O  0.57291753  0.41978351  0.03001569    -0.52000
O1521       O  0.60612132  0.38197098  0.06622750    -0.75200
O1522       O  0.55592363  0.38225868  0.98823818    -0.82000
O1523       O  0.64772498  0.43700667  0.98160331    -0.83700
O1524       O  0.55059164  0.34983547  0.94649627    -0.79300
O1525       O  0.60956484  0.43344420  0.00127585    -0.91000
O1526       O  0.63256885  0.35236438  0.06889043    -0.76900
O1527       O  0.60025544  0.35045583  0.98675709    -0.86400
O1528       O  0.63845987  0.38339054  0.99995069    -0.86100
O1529       O  0.58442147  0.38197192  0.91906010    -0.72900
O1530       O  0.61866760  0.41205641  0.93341193    -0.85000
Zr1531     Zr  0.64899301  0.34903724  0.86847726     2.26400
Zr1532     Zr  0.58795066  0.33982163  0.91505484     2.06300
Zr1533     Zr  0.65896216  0.40211673  0.94214316     2.10000
Zr1534     Zr  0.64069131  0.34147543  0.99588627     1.78800
O1535       O  0.67507025  0.43191602  0.89405067    -0.93800
O1536       O  0.62215405  0.30679986  0.02696513    -0.41600
O1537       O  0.66094473  0.36047550  0.93914234    -0.78300
O1538       O  0.62811403  0.32917539  0.92577294    -0.97000
O1539       O  0.60882195  0.35885947  0.85822030    -0.90300
O1540       O  0.64678809  0.39110417  0.87083925    -0.93100
C1541       C  0.61963843  0.36779113  0.08693984     1.00700
C1542       C  0.62880285  0.44516865  0.99801762     1.13600
C1543       C  0.54282012  0.36651417  0.97035287     1.04400
O1544       O  0.57438695  0.30505499  0.95342811    -0.95300
O1545       O  0.59660963  0.30593453  0.86920123    -0.91000
O1546       O  0.63439185  0.31008151  0.84795911    -0.84100
C1547       C  0.61505238  0.29841891  0.84968755     1.11000
O1548       O  0.58039256  0.43447536  0.87174360    -0.97200
Zr1549     Zr  0.60618422  0.40061897  0.86299857     1.88900
O1550       O  0.64253220  0.36099179  0.79301452    -0.73900
O1551       O  0.55782150  0.33655214  0.85950871    -0.53100
O1552       O  0.56935184  0.39722993  0.82339581    -0.97800
O1553       O  0.62435883  0.43641113  0.83536926    -0.55000
O1554       O  0.61479869  0.38948198  0.79028004    -0.74400
C1555       C  0.62847639  0.37467261  0.77231570     0.98000
O1556       O  0.68024930  0.32815177  0.83100303    -0.63200
O1557       O  0.68885379  0.41321286  0.99492648    -0.58000
O1558       O  0.69099296  0.35144546  0.88872469    -0.94700
O1559       O  0.69661948  0.38421737  0.92971300    -0.93100
O1560       O  0.67847461  0.34411822  0.03222926    -0.93500
O1561       O  0.66602499  0.30738815  0.98712812    -0.92300
C1562       C  0.70402078  0.36548877  0.91121615     1.16800
H1563       H  0.64463877  0.38952754  0.02671494     0.32700
H1564       H  0.63016419  0.31233679  0.92532589     0.43600
H1565       H  0.65645645  0.39808191  0.84870863     0.37100
H1566       H  0.56851882  0.38699632  0.91394421     0.33600
H1567       H  0.63055314  0.30424767  0.05454013     0.25400
H1568       H  0.54655350  0.32481445  0.87084575     0.31300
H1569       H  0.56943089  0.38115158  0.81108042     0.37200
H1570       H  0.68308003  0.36084201  0.02937614     0.31700
H1571       H  0.69244178  0.42996943  0.98918393     0.30600
H1572       H  0.69183284  0.42774294  0.89095497     0.32200
H1573       H  0.63684305  0.43109750  0.81547044     0.31200
H1574       H  0.67501809  0.31064504  0.96046956     0.35200
H1575       H  0.68089580  0.31240848  0.84459460     0.27900
H1576       H  0.56327774  0.41018685  0.04991207     0.32200
H1577       H  0.57804839  0.44094852  0.84241110     0.35000
H1578       H  0.68084390  0.41319187  0.02325441     0.27600
H1579       H  0.67423511  0.32523160  0.80153371     0.40500
H1580       H  0.58891944  0.29704095  0.96274578     0.30600
H1581       H  0.60631785  0.31204229  0.03575023     0.38200
H1582       H  0.63281542  0.44320132  0.86038162     0.30000
H1583       H  0.54924663  0.35166383  0.86056325     0.30100
H1584       H  0.56179833  0.42619160  0.00851123     0.30400
Zr1585     Zr  0.40753836  0.61381191  0.50088873     2.17500
O1586       O  0.43234192  0.58635459  0.54050473    -0.52000
O1587       O  0.40090788  0.62383828  0.57708460    -0.75200
O1588       O  0.44927255  0.62462760  0.49745811    -0.82000
O1589       O  0.35663975  0.56983693  0.49182542    -0.83700
O1590       O  0.45409989  0.65788962  0.45785299    -0.79300
O1591       O  0.39556250  0.57217645  0.50641099    -0.91000
O1592       O  0.37607184  0.65478584  0.58135541    -0.76900
O1593       O  0.40560052  0.65580402  0.49772251    -0.86400
O1594       O  0.36747475  0.62356700  0.51262700    -0.86100
O1595       O  0.42034613  0.62492850  0.42940367    -0.72900
O1596       O  0.38581437  0.59508985  0.44416128    -0.85000
Zr1597     Zr  0.35540589  0.65813341  0.38094087     2.26400
Zr1598     Zr  0.41669988  0.66717430  0.42593395     2.06300
Zr1599     Zr  0.34588238  0.60560350  0.45510353     2.10000
Zr1600     Zr  0.36564825  0.66550225  0.50899108     1.78800
O1601       O  0.32870488  0.57643382  0.40676406    -0.93800
O1602       O  0.38566638  0.70029776  0.53685650    -0.41600
O1603       O  0.34448967  0.64722259  0.45225525    -0.78300
O1604       O  0.37673336  0.67794139  0.43791459    -0.97000
O1605       O  0.39537439  0.64822417  0.36935299    -0.90300
O1606       O  0.35740798  0.61613657  0.38326174    -0.93100
C1607       C  0.38878199  0.63889997  0.59862305     1.00700
C1608       C  0.37602127  0.56073550  0.50426975     1.13600
C1609       C  0.46207876  0.64094248  0.48072811     1.04400
O1610       O  0.42829648  0.70229159  0.46575834    -0.95300
O1611       O  0.40830144  0.70043038  0.37829071    -0.91000
O1612       O  0.37034033  0.69625591  0.35789848    -0.84100
C1613       C  0.38983230  0.70764854  0.35848707     1.11000
O1614       O  0.42165157  0.57100175  0.38040900    -0.97200
Zr1615     Zr  0.39793836  0.60650040  0.37372679     1.88900
O1616       O  0.36028144  0.64588386  0.30530813    -0.73900
O1617       O  0.44707537  0.67105121  0.37121407    -0.53100
O1618       O  0.43622159  0.61011207  0.33932444    -0.97800
O1619       O  0.38003983  0.57114493  0.34326601    -0.55000
O1620       O  0.38936855  0.61886546  0.30150181    -0.74400
C1621       C  0.37483174  0.63303998  0.28401497     0.98000
O1622       O  0.32439848  0.68022415  0.34497702    -0.63200
O1623       O  0.31628393  0.59610079  0.50924546    -0.58000
O1624       O  0.31362201  0.65601266  0.40140639    -0.94700
O1625       O  0.30855199  0.62440617  0.44522405    -0.93100
O1626       O  0.32834904  0.66099635  0.54623738    -0.93500
O1627       O  0.34023629  0.69982164  0.50694691    -0.92300
C1628       C  0.30092274  0.64261912  0.42551885     1.16800
H1629       H  0.36166062  0.61749121  0.53964468     0.32700
H1630       H  0.37470145  0.69478429  0.43701066     0.43600
H1631       H  0.34747002  0.60917067  0.36143758     0.37100
H1632       H  0.43624331  0.62004237  0.42382750     0.33600
H1633       H  0.37750774  0.70401219  0.56421451     0.25400
H1634       H  0.45852760  0.68232408  0.38359006     0.31300
H1635       H  0.43498288  0.62409372  0.32048356     0.37200
H1636       H  0.32371556  0.64445725  0.54085667     0.31700
H1637       H  0.31289126  0.57912545  0.50561150     0.30600
H1638       H  0.31155925  0.57841058  0.41014047     0.32200
H1639       H  0.36694954  0.57673242  0.32500547     0.31200
H1640       H  0.33122499  0.69802711  0.47980248     0.35200
H1641       H  0.32313198  0.69518746  0.36125086     0.27900
H1642       H  0.44227846  0.59605710  0.55982926     0.32200
H1643       H  0.42545548  0.56605704  0.35056760     0.35000
H1644       H  0.32438286  0.59730273  0.53742956     0.27600
H1645       H  0.33094231  0.68486875  0.31669478     0.40500
H1646       H  0.41529298  0.71355271  0.46141028     0.30600
H1647       H  0.40132323  0.69470418  0.54602612     0.38200
H1648       H  0.37235097  0.56332613  0.36804420     0.30000
H1649       H  0.45532786  0.65575088  0.37117995     0.30100
H1650       H  0.44324041  0.57971375  0.51885649     0.30400
Zr1651     Zr  0.40583157  0.61192686  0.00197236     2.17500
O1652       O  0.42860805  0.58450381  0.04532364    -0.52000
O1653       O  0.39836666  0.62381189  0.07687024    -0.75200
O1654       O  0.44801117  0.62144233  0.00001489    -0.82000
O1655       O  0.35578903  0.56739680  0.98942936    -0.83700
O1656       O  0.45399380  0.65382054  0.95875519    -0.79300
O1657       O  0.39390510  0.57044208  0.00992532    -0.91000
O1658       O  0.37313288  0.65440322  0.07942858    -0.76900
O1659       O  0.40406861  0.65385180  0.99727218    -0.86400
O1660       O  0.36552142  0.62181468  0.01089949    -0.86100
O1661       O  0.42009180  0.62165867  0.93084368    -0.72900
O1662       O  0.38486125  0.59263738  0.94483410    -0.85000
Zr1663     Zr  0.35638026  0.65505323  0.87774741     2.26400
Zr1664     Zr  0.41702532  0.66380660  0.92577985     2.06300
Zr1665     Zr  0.34482617  0.60324692  0.95290188     2.10000
Zr1666     Zr  0.36380431  0.66366733  0.00573531     1.78800
O1667       O  0.32811375  0.57287481  0.90656083    -0.93800
O1668       O  0.38169124  0.69966036  0.03323029    -0.41600
O1669       O  0.34332299  0.64492933  0.94847256    -0.78300
O1670       O  0.37698879  0.67504308  0.93549817    -0.97000
O1671       O  0.39635556  0.64458759  0.86886888    -0.90300
O1672       O  0.35779030  0.61306400  0.88161503    -0.93100
C1673       C  0.38568953  0.63867839  0.09765731     1.00700
C1674       C  0.37460397  0.55878383  0.00555328     1.13600
C1675       C  0.46146060  0.63699204  0.98254708     1.04400
O1676       O  0.43190093  0.69864168  0.96258494    -0.95300
O1677       O  0.40883250  0.69763797  0.87958786    -0.91000
O1678       O  0.37105187  0.69367847  0.85777246    -0.84100
C1679       C  0.39043535  0.70515973  0.85990630     1.11000
O1680       O  0.41882673  0.56603981  0.88802323    -0.97200
Zr1681     Zr  0.39828918  0.60290497  0.87473324     1.88900
O1682       O  0.36285379  0.64201037  0.80323954    -0.73900
O1683       O  0.44614291  0.66439109  0.86832397    -0.53100
O1684       O  0.43732440  0.60460376  0.84276914    -0.97800
O1685       O  0.38009864  0.56922331  0.83897300    -0.55000
O1686       O  0.39222469  0.61523320  0.80189458    -0.74400
C1687       C  0.37785614  0.62907606  0.78330149     0.98000
O1688       O  0.33044560  0.67703152  0.82968111    -0.63200
O1689       O  0.31535585  0.59456091  0.00766943    -0.58000
O1690       O  0.31435176  0.65348505  0.89602914    -0.94700
O1691       O  0.30752160  0.62105791  0.93702115    -0.93100
O1692       O  0.32661967  0.65946337  0.04350548    -0.93500
O1693       O  0.33754967  0.69699637  0.99608623    -0.92300
C1694       C  0.30080341  0.63974812  0.91765682     1.16800
H1695       H  0.35930818  0.61611983  0.03790249     0.32700
H1696       H  0.37515524  0.69190277  0.93483760     0.43600
H1697       H  0.34811853  0.60594776  0.85954643     0.37100
H1698       H  0.43594284  0.61637087  0.92619523     0.33600
H1699       H  0.37321378  0.70301330  0.06041551     0.25400
H1700       H  0.45625474  0.67810213  0.87503808     0.31300
H1701       H  0.43720150  0.61875393  0.82420776     0.37200
H1702       H  0.32076520  0.64373316  0.03488078     0.31700
H1703       H  0.30881450  0.57903985  0.99943448     0.30600
H1704       H  0.31186219  0.57080071  0.91712469     0.32200
H1705       H  0.36885094  0.57587305  0.81795624     0.31200
H1706       H  0.33147192  0.69524743  0.96630103     0.35200
H1707       H  0.31888621  0.66557730  0.81822775     0.27900
H1708       H  0.43830854  0.59431880  0.06483755     0.32200
H1709       H  0.42542915  0.56120979  0.85983950     0.35000
H1710       H  0.32419667  0.59156929  0.03460045     0.27600
H1711       H  0.32132772  0.68793119  0.84810233     0.40500
H1712       H  0.41768288  0.70707101  0.97230742     0.30600
H1713       H  0.39758769  0.69494744  0.04267436     0.38200
H1714       H  0.37013899  0.56190791  0.86141249     0.30000
H1715       H  0.45622479  0.65054931  0.87371433     0.30100
H1716       H  0.43976166  0.57702735  0.02509050     0.30400
Zr1717     Zr  0.40703220  0.89271786  0.13065065     2.17500
O1718       O  0.43319200  0.92021140  0.09382237    -0.52000
O1719       O  0.39944752  0.88200281  0.05511197    -0.75200
O1720       O  0.44839872  0.88088641  0.13141882    -0.82000
O1721       O  0.35828008  0.93867809  0.14205324    -0.83700
O1722       O  0.45237978  0.84795351  0.17192041    -0.79300
O1723       O  0.39621413  0.93434033  0.12126238    -0.91000
O1724       O  0.37271358  0.85253350  0.05231959    -0.76900
O1725       O  0.40299796  0.85080472  0.13397918    -0.86400
O1726       O  0.36630404  0.88469056  0.12129332    -0.86100
O1727       O  0.42049525  0.88130523  0.20148149    -0.72900
O1728       O  0.38725512  0.91246639  0.18852536    -0.85000
Zr1729     Zr  0.35481422  0.85010665  0.25302285     2.26400
Zr1730     Zr  0.41517636  0.83931067  0.20508280     2.06300
Zr1731     Zr  0.34678534  0.90354493  0.18006151     2.10000
Zr1732     Zr  0.36228382  0.84295965  0.12511161     1.78800
O1733       O  0.33314841  0.93458349  0.22808796    -0.93800
O1734       O  0.37782105  0.80677984  0.09415986    -0.41600
O1735       O  0.34252860  0.86198249  0.18271095    -0.78300
O1736       O  0.37461979  0.82979556  0.19487259    -0.97000
O1737       O  0.39530968  0.85881419  0.26244713    -0.90300
O1738       O  0.35887266  0.89200860  0.25093359    -0.93100
C1739       C  0.38609367  0.86764704  0.03428860     1.00700
C1740       C  0.37731202  0.94654384  0.12551158     1.13600
C1741       C  0.46076951  0.86432372  0.14816791     1.04400
O1742       O  0.42668937  0.80373583  0.16687059    -0.95300
O1743       O  0.40636737  0.80622395  0.25250558    -0.91000
O1744       O  0.36855778  0.81088508  0.27324890    -0.84100
C1745       C  0.38778493  0.79909010  0.27203868     1.11000
O1746       O  0.42434072  0.93517826  0.24906921    -0.97200
Zr1747     Zr  0.39978151  0.90036265  0.25827151     1.88900
O1748       O  0.36313616  0.86109448  0.32855615    -0.73900
O1749       O  0.44556548  0.83514941  0.25989567    -0.53100
O1750       O  0.43849941  0.89545556  0.29046891    -0.97800
O1751       O  0.38312089  0.93562319  0.29094532    -0.55000
O1752       O  0.39281630  0.88759469  0.33063861    -0.74400
C1753       C  0.37853798  0.87349163  0.34903872     0.98000
O1754       O  0.32409062  0.82981617  0.29321971    -0.63200
O1755       O  0.31654961  0.91298127  0.12712968    -0.58000
O1756       O  0.31246171  0.85524297  0.23600656    -0.94700
O1757       O  0.30862178  0.88943450  0.19874212    -0.93100
O1758       O  0.32542267  0.84988395  0.08758969    -0.93500
O1759       O  0.33389242  0.81122360  0.13310896    -0.92300
C1760       C  0.30008741  0.87115265  0.21684459     1.16800
H1761       H  0.36038474  0.89095439  0.09448658     0.32700
H1762       H  0.37204307  0.81301209  0.19532349     0.43600
H1763       H  0.34957016  0.89932251  0.27323376     0.37100
H1764       H  0.43664202  0.88569144  0.20622311     0.33600
H1765       H  0.36824418  0.80402493  0.06794464     0.25400
H1766       H  0.45479641  0.82131275  0.25057023     0.31300
H1767       H  0.43670662  0.90011566  0.32107524     0.37200
H1768       H  0.31845277  0.86359751  0.10251283     0.31700
H1769       H  0.31140356  0.92911183  0.13453301     0.30600
H1770       H  0.31605774  0.93558545  0.22277414     0.32200
H1771       H  0.37130157  0.92994135  0.31186351     0.31200
H1772       H  0.32588161  0.81466531  0.16074230     0.35200
H1773       H  0.32110071  0.81508344  0.27699203     0.27900
H1774       H  0.44168725  0.91090721  0.07180600     0.32200
H1775       H  0.42848009  0.94049780  0.27855976     0.35000
H1776       H  0.32482888  0.91465832  0.09924607     0.27600
H1777       H  0.33157510  0.82465229  0.32042715     0.40500
H1778       H  0.41184684  0.79500887  0.16228115     0.30600
H1779       H  0.39351104  0.81110733  0.08300032     0.38200
H1780       H  0.37387921  0.94301615  0.26759473     0.30000
H1781       H  0.45623273  0.84872125  0.25573158     0.30100
H1782       H  0.44523059  0.92483920  0.11530951     0.30400
Zr1783     Zr  0.41057262  0.88917718  0.63221173     2.17500
O1784       O  0.43543426  0.91562731  0.59030263    -0.52000
O1785       O  0.40381856  0.87852477  0.55602224    -0.75200
O1786       O  0.45264695  0.88075145  0.63893507    -0.82000
O1787       O  0.35930327  0.93162782  0.63447278    -0.83700
O1788       O  0.45768186  0.84807177  0.67978240    -0.79300
O1789       O  0.39866392  0.93039120  0.62408917    -0.91000
O1790       O  0.38022022  0.84650522  0.55199087    -0.76900
O1791       O  0.40993929  0.84723470  0.63791570    -0.86400
O1792       O  0.37097810  0.87781409  0.61873604    -0.86100
O1793       O  0.42234967  0.88030860  0.70545237    -0.72900
O1794       O  0.38729883  0.90835347  0.68630898    -0.85000
Zr1795     Zr  0.35801586  0.84546564  0.75121792     2.26400
Zr1796     Zr  0.42035709  0.83812916  0.71118160     2.06300
Zr1797     Zr  0.34798311  0.89632901  0.67301953     2.10000
Zr1798     Zr  0.37040278  0.83595463  0.62466389     1.78800
O1799       O  0.32787945  0.92619202  0.71548817    -0.93800
O1800       O  0.39179129  0.80213612  0.59677370    -0.41600
O1801       O  0.34741198  0.85460630  0.67850564    -0.78300
O1802       O  0.38102792  0.82559311  0.69685796    -0.97000
O1803       O  0.39732248  0.85710822  0.76523323    -0.90300
O1804       O  0.35827391  0.88744747  0.74626163    -0.93100
C1805       C  0.39184590  0.86320163  0.53454912     1.00700
C1806       C  0.37877302  0.94106957  0.62305363     1.13600
C1807       C  0.46561047  0.86507189  0.65694092     1.04400
O1808       O  0.43654702  0.80272021  0.67857006    -0.95300
O1809       O  0.41183293  0.80441451  0.75740111    -0.91000
O1810       O  0.37383311  0.80838875  0.77715211    -0.84100
C1811       C  0.39331284  0.79710149  0.77687098     1.11000
O1812       O  0.42017710  0.93515456  0.74833658    -0.97200
Zr1813     Zr  0.39806103  0.89881708  0.75844547     1.88900
O1814       O  0.36114812  0.85824814  0.82677656    -0.73900
O1815       O  0.44896761  0.83940323  0.76962436    -0.53100
O1816       O  0.43455175  0.90015546  0.79937877    -0.97800
O1817       O  0.37626543  0.93243743  0.78643408    -0.55000
O1818       O  0.38914835  0.88648848  0.83063433    -0.74400
C1819       C  0.37497693  0.87190522  0.84814548     0.98000
O1820       O  0.32741260  0.82044154  0.78176471    -0.63200
O1821       O  0.32008549  0.90424649  0.61501056    -0.58000
O1822       O  0.31606482  0.84810863  0.73498619    -0.94700
O1823       O  0.31130563  0.87644308  0.68404626    -0.93100
O1824       O  0.33424061  0.83742889  0.58294608    -0.93500
O1825       O  0.34630252  0.80079903  0.63293070    -0.92300
C1826       C  0.30364846  0.85970258  0.70769587     1.16800
H1827       H  0.36512775  0.88328436  0.59133171     0.32700
H1828       H  0.37954923  0.80870646  0.69852742     0.43600
H1829       H  0.34751847  0.89432438  0.76673410     0.37100
H1830       H  0.43795669  0.88595457  0.71172045     0.33600
H1831       H  0.38409420  0.79845722  0.56889664     0.25400
H1832       H  0.45990768  0.82634465  0.76331864     0.31300
H1833       H  0.43580841  0.88446537  0.81297060     0.37200
H1834       H  0.33664753  0.82631403  0.55872332     0.31700
H1835       H  0.31413410  0.92030601  0.62063320     0.30600
H1836       H  0.31311374  0.92922134  0.69963566     0.32200
H1837       H  0.36519260  0.92594496  0.80794159     0.31200
H1838       H  0.33463303  0.80507137  0.65524107     0.35200
H1839       H  0.32928259  0.80486398  0.76782324     0.27900
H1840       H  0.44571896  0.90549602  0.57251406     0.32200
H1841       H  0.42078043  0.94283833  0.77702056     0.35000
H1842       H  0.32954819  0.90577689  0.58840205     0.27600
H1843       H  0.33193230  0.81795044  0.81225549     0.40500
H1844       H  0.44744335  0.79637119  0.70053210     0.30600
H1845       H  0.40740086  0.80835125  0.58861774     0.38200
H1846       H  0.36626601  0.93760312  0.76213244     0.30000
H1847       H  0.45828983  0.85384656  0.76450990     0.30100
H1848       H  0.44598439  0.92337117  0.61140575     0.30400
Zr1849     Zr  0.34710171  0.15372022  0.00480679     2.17500
O1850       O  0.32073631  0.17854872  0.96275226    -0.52000
O1851       O  0.35876895  0.14781321  0.92936337    -0.75200
O1852       O  0.35441157  0.19612890  0.01369407    -0.82000
O1853       O  0.30344177  0.10242643  0.01447236    -0.83700
O1854       O  0.39295414  0.19512514  0.02308506    -0.79300
O1855       O  0.30721532  0.14027035  0.99169281    -0.91000
O1856       O  0.38717685  0.12011176  0.92550386    -0.76900
O1857       O  0.38881606  0.14993198  0.00475987    -0.86400
O1858       O  0.35513197  0.11271181  0.99666077    -0.86100
O1859       O  0.35902871  0.16784220  0.07556880    -0.72900
O1860       O  0.32845256  0.13347651  0.06410738    -0.85000
Zr1861     Zr  0.39326065  0.10456929  0.12640301     2.26400
Zr1862     Zr  0.40091177  0.16422485  0.07433361     2.06300
Zr1863     Zr  0.33822795  0.09279445  0.05710109     2.10000
Zr1864     Zr  0.39657899  0.10889200  0.99759263     1.78800
O1865       O  0.30692506  0.08183983  0.10659086    -0.93800
O1866       O  0.43284859  0.12341758  0.96545084    -0.41600
O1867       O  0.38004435  0.08926662  0.05815968    -0.78300
O1868       O  0.41073891  0.12358813  0.06457757    -0.97000
O1869       O  0.38350013  0.14499397  0.13497185    -0.90300
O1870       O  0.35126414  0.10629980  0.12653599    -0.93100
C1871       C  0.37286312  0.13445277  0.90816567     1.00700
C1872       C  0.29568192  0.12095690  0.99553049     1.13600
C1873       C  0.37371755  0.20648277  0.02342084     1.04400
O1874       O  0.43618883  0.18379519  0.04835336    -0.95300
O1875       O  0.43731623  0.15525768  0.11078709    -0.91000
O1876       O  0.43397833  0.11798512  0.13626356    -0.84100
C1877       C  0.44586057  0.13683163  0.12857570     1.11000
O1878       O  0.30597309  0.16997675  0.12580926    -0.97200
Zr1879     Zr  0.34159684  0.14674437  0.13335414     1.88900
O1880       O  0.38250422  0.11195201  0.20188196    -0.73900
O1881       O  0.39861535  0.19608336  0.12666204    -0.53100
O1882       O  0.34184421  0.18480437  0.16962118    -0.97800
O1883       O  0.30949717  0.12581292  0.16839004    -0.55000
O1884       O  0.35512963  0.14067638  0.20553879    -0.74400
C1885       C  0.36970969  0.12659991  0.22298665     0.98000
O1886       O  0.41993398  0.08242161  0.17244708    -0.63200
O1887       O  0.32835624  0.06017845  0.00916531    -0.58000
O1888       O  0.38701874  0.06176961  0.11911527    -0.94700
O1889       O  0.35384149  0.05514852  0.08050775    -0.93100
O1890       O  0.38681927  0.07191898  0.96175289    -0.93500
O1891       O  0.42772096  0.07975229  0.00190372    -0.92300
C1892       C  0.37178625  0.04784193  0.10178515     1.16800
H1893       H  0.34843613  0.10668938  0.97020704     0.32700
H1894       H  0.42736465  0.12107206  0.06176204     0.43600
H1895       H  0.34483928  0.09693247  0.14967832     0.37100
H1896       H  0.35448928  0.18366367  0.08292767     0.33600
H1897       H  0.42851072  0.13843303  0.95144448     0.25400
H1898       H  0.40422805  0.18908003  0.15399676     0.31300
H1899       H  0.35754581  0.19149955  0.16380406     0.37200
H1900       H  0.37456901  0.07585101  0.94030597     0.31700
H1901       H  0.31252801  0.05500878  0.01829534     0.30600
H1902       H  0.29488064  0.07426792  0.08816174     0.32200
H1903       H  0.29667991  0.12544787  0.14682177     0.31200
H1904       H  0.42722505  0.07414041  0.03212237     0.35200
H1905       H  0.40990215  0.07192350  0.19001243     0.27900
H1906       H  0.33087102  0.18922486  0.94572759     0.32200
H1907       H  0.30819811  0.17891820  0.09872845     0.35000
H1908       H  0.32599319  0.06728205  0.98034838     0.27600
H1909       H  0.42879247  0.07192591  0.15288258     0.40500
H1910       H  0.44191632  0.17358707  0.02470152     0.30600
H1911       H  0.44282711  0.12819840  0.99011877     0.38200
H1912       H  0.30390795  0.13668001  0.19115252     0.30000
H1913       H  0.41127599  0.20707139  0.11816678     0.30100
H1914       H  0.31268050  0.18880798  0.98389547     0.30400
Zr1915     Zr  0.34647914  0.14812068  0.50481126     2.17500
O1916       O  0.32072844  0.17321236  0.46204697    -0.52000
O1917       O  0.35931539  0.14198438  0.42995173    -0.75200
O1918       O  0.35374276  0.19058884  0.51514880    -0.82000
O1919       O  0.30300570  0.09623401  0.50984125    -0.83700
O1920       O  0.39188118  0.19040279  0.53058963    -0.79300
O1921       O  0.30646532  0.13488321  0.49217810    -0.91000
O1922       O  0.38778002  0.11421972  0.42816709    -0.76900
O1923       O  0.38817707  0.14513506  0.50938757    -0.86400
O1924       O  0.35548672  0.10723253  0.49621110    -0.86100
O1925       O  0.35582045  0.16198297  0.57687787    -0.72900
O1926       O  0.32640226  0.12696390  0.56118796    -0.85000
Zr1927     Zr  0.38928103  0.09844454  0.62950861     2.26400
Zr1928     Zr  0.39769263  0.15861780  0.58076931     2.06300
Zr1929     Zr  0.33698311  0.08652467  0.55414490     2.10000
Zr1930     Zr  0.39701453  0.10442511  0.50133879     1.78800
O1931       O  0.30520704  0.07355762  0.60093531    -0.93800
O1932       O  0.43289712  0.12137334  0.47185218    -0.41600
O1933       O  0.37868466  0.08399114  0.55923580    -0.78300
O1934       O  0.40867684  0.11834924  0.57052477    -0.97000
O1935       O  0.37849305  0.13847591  0.63822725    -0.90300
O1936       O  0.34735139  0.09969306  0.62527505    -0.93100
C1937       C  0.37347329  0.12821876  0.40973026     1.00700
C1938       C  0.29514958  0.11531983  0.49310393     1.13600
C1939       C  0.37247658  0.20131817  0.52738210     1.04400
O1940       O  0.43391934  0.17795362  0.55890327    -0.95300
O1941       O  0.43224316  0.15019307  0.62259518    -0.91000
O1942       O  0.42925010  0.11223485  0.64430332    -0.84100
C1943       C  0.44061613  0.13167846  0.64014286     1.11000
O1944       O  0.30134533  0.16322167  0.62211467    -0.97200
Zr1945     Zr  0.33682407  0.14000582  0.63186289     1.88900
O1946       O  0.37857411  0.10829781  0.70417891    -0.73900
O1947       O  0.39379550  0.18804301  0.63753271    -0.53100
O1948       O  0.33705460  0.17799190  0.66848277    -0.97800
O1949       O  0.30354471  0.11884404  0.66242710    -0.55000
O1950       O  0.34835383  0.13402588  0.70495197    -0.74400
C1951       C  0.36404164  0.12189117  0.72385483     0.98000
O1952       O  0.41150162  0.07105742  0.67417241    -0.63200
O1953       O  0.32882047  0.05387002  0.50522814    -0.58000
O1954       O  0.38333281  0.05580600  0.62123114    -0.94700
O1955       O  0.35279420  0.04887557  0.57592754    -0.93100
O1956       O  0.39216376  0.06689770  0.46434286    -0.93500
O1957       O  0.43012850  0.07791042  0.51061650    -0.92300
C1958       C  0.36963233  0.04181343  0.60016744     1.16800
H1959       H  0.34969389  0.10111941  0.46911160     0.32700
H1960       H  0.42544124  0.11630532  0.56960996     0.43600
H1961       H  0.34035195  0.09011096  0.64754092     0.37100
H1962       H  0.35077444  0.17770547  0.58387948     0.33600
H1963       H  0.42773890  0.13532126  0.45531610     0.25400
H1964       H  0.40857569  0.19719762  0.63643386     0.31300
H1965       H  0.35259463  0.17902512  0.68264791     0.37200
H1966       H  0.38103728  0.05793042  0.48252604     0.31700
H1967       H  0.31305907  0.04813861  0.51361269     0.30600
H1968       H  0.29193730  0.07025150  0.58119601     0.32200
H1969       H  0.29139024  0.11889692  0.63958383     0.31200
H1970       H  0.42521289  0.06708693  0.53394180     0.35200
H1971       H  0.42597605  0.06758565  0.65772669     0.27900
H1972       H  0.33118264  0.18340123  0.44468317     0.32200
H1973       H  0.30408602  0.17220055  0.59523587     0.35000
H1974       H  0.32659359  0.06104803  0.47644732     0.27600
H1975       H  0.41690318  0.08026585  0.69947522     0.40500
H1976       H  0.44228881  0.16603505  0.54143831     0.30600
H1977       H  0.44130472  0.12799324  0.49707157     0.38200
H1978       H  0.29735687  0.12938621  0.68517635     0.30000
H1979       H  0.38157150  0.19901393  0.62730429     0.30100
H1980       H  0.31301646  0.18393201  0.48286179     0.30400
Zr1981     Zr  0.15424820  0.15280815  0.38872806     2.17500
O1982       O  0.17883154  0.17918334  0.43158949    -0.52000
O1983       O  0.14101100  0.14879079  0.46384386    -0.75200
O1984       O  0.14777526  0.19499674  0.37309693    -0.82000
O1985       O  0.19565384  0.10006357  0.39384281    -0.83700
O1986       O  0.10954123  0.19384177  0.35921075    -0.79300
O1987       O  0.19377089  0.13937742  0.40605627    -0.91000
O1988       O  0.11141577  0.12219023  0.46793590    -0.76900
O1989       O  0.11249313  0.14977710  0.38414845    -0.86400
O1990       O  0.14449941  0.11248324  0.40162109    -0.86100
O1991       O  0.14497450  0.16405997  0.31512990    -0.72900
O1992       O  0.17424474  0.12948499  0.33494805    -0.85000
Zr1993     Zr  0.11099983  0.09917506  0.26928327     2.26400
Zr1994     Zr  0.10302384  0.16089871  0.31146800     2.06300
Zr1995     Zr  0.16298108  0.08947022  0.34692725     2.10000
Zr1996     Zr  0.10307600  0.10941874  0.39611823     1.78800
O1997       O  0.19764953  0.07487322  0.30974868    -0.93800
O1998       O  0.06662067  0.12734274  0.42043865    -0.41600
O1999       O  0.12132013  0.08672546  0.34095666    -0.78300
O2000       O  0.09171399  0.12106890  0.32582503    -0.97000
O2001       O  0.12210879  0.13876928  0.25603587    -0.90300
O2002       O  0.15285986  0.10038258  0.27452807    -0.93100
C2003       C  0.12611718  0.13631448  0.48513848     1.00700
C2004       C  0.20396091  0.11930896  0.40956568     1.13600
C2005       C  0.12888258  0.20509687  0.36012556     1.04400
O2006       O  0.06674012  0.18036186  0.33208071    -0.95300
O2007       O  0.06795101  0.15078319  0.27154854    -0.91000
O2008       O  0.07081770  0.11227202  0.25296199    -0.84100
C2009       C  0.05929656  0.13167594  0.25622511     1.11000
O2010       O  0.19853142  0.16479643  0.27253669    -0.97200
Zr2011     Zr  0.16383906  0.14020100  0.26281185     1.88900
O2012       O  0.12247978  0.10593878  0.19394788    -0.73900
O2013       O  0.10698344  0.19040684  0.25506966    -0.53100
O2014       O  0.16129225  0.17656988  0.22160545    -0.97800
O2015       O  0.19891460  0.12049791  0.23609158    -0.55000
O2016       O  0.15391174  0.13013130  0.19002843    -0.74400
C2017       C  0.13770430  0.11785465  0.17248952     0.98000
O2018       O  0.08869415  0.06910442  0.23059465    -0.63200
O2019       O  0.16569735  0.05941640  0.40276076    -0.58000
O2020       O  0.11816006  0.05708266  0.27875087    -0.94700
O2021       O  0.14987069  0.05120010  0.32148411    -0.93100
O2022       O  0.10719917  0.07381280  0.43899383    -0.93500
O2023       O  0.07120388  0.08111156  0.38863978    -0.92300
C2024       C  0.13290015  0.04355827  0.29803606     1.16800
H2025       H  0.15008873  0.10749014  0.42954374     0.32700
H2026       H  0.07495069  0.11904042  0.32720570     0.43600
H2027       H  0.15979621  0.08989539  0.25361727     0.37100
H2028       H  0.15012106  0.17946712  0.30621201     0.33600
H2029       H  0.06189781  0.11798762  0.44592396     0.25400
H2030       H  0.10213142  0.18217888  0.22831629     0.31300
H2031       H  0.14567029  0.17603464  0.20767683     0.37200
H2032       H  0.12305165  0.07483467  0.45188929     0.31700
H2033       H  0.18195365  0.05343552  0.40071974     0.30600
H2034       H  0.19156548  0.06581152  0.28481418     0.32200
H2035       H  0.19327090  0.10661843  0.21975321     0.31200
H2036       H  0.07642846  0.07029833  0.36548945     0.35200
H2037       H  0.07470512  0.06595585  0.24861980     0.27900
H2038       H  0.16792237  0.18950189  0.44766021     0.32200
H2039       H  0.20526497  0.16681829  0.24333555     0.35000
H2040       H  0.16524809  0.06800052  0.43055045     0.27600
H2041       H  0.08246889  0.07692795  0.20450907     0.40500
H2042       H  0.06300256  0.17384732  0.36088314     0.30600
H2043       H  0.07132426  0.14279249  0.43249733     0.38200
H2044       H  0.20646236  0.11390424  0.26215765     0.30000
H2045       H  0.09410628  0.20164035  0.26067584     0.30100
H2046       H  0.18693212  0.18963398  0.41084173     0.30400
Zr2047     Zr  0.15380630  0.14989034  0.88946375     2.17500
O2048       O  0.16474689  0.18410901  0.93290436    -0.52000
O2049       O  0.14481042  0.14185929  0.96512340    -0.75200
O2050       O  0.15113948  0.18848701  0.85256519    -0.82000
O2051       O  0.20128317  0.10325950  0.87788411    -0.83700
O2052       O  0.11544695  0.19017476  0.82145054    -0.79300
O2053       O  0.19355750  0.13850149  0.90864944    -0.91000
O2054       O  0.12059221  0.11030583  0.96799847    -0.76900
O2055       O  0.11225253  0.14260430  0.89581781    -0.86400
O2056       O  0.15096056  0.10821903  0.89457236    -0.86100
O2057       O  0.13415825  0.14131031  0.82570551    -0.72900
O2058       O  0.17525926  0.13556613  0.82747658    -0.85000
Zr2059     Zr  0.11108771  0.10002065  0.76504065     2.26400
Zr2060     Zr  0.09538621  0.15392774  0.82828627     2.06300
Zr2061     Zr  0.16870888  0.09340699  0.82980620     2.10000
Zr2062     Zr  0.10973913  0.10017155  0.89556046     1.78800
O2063       O  0.20100429  0.08823632  0.77929575    -0.93800
O2064       O  0.07272491  0.10771375  0.93234658    -0.41600
O2065       O  0.12740851  0.08473566  0.83136211    -0.78300
O2066       O  0.09050372  0.11247975  0.83000302    -0.97000
O2067       O  0.11398241  0.14221062  0.76173067    -0.90300
O2068       O  0.15274876  0.10720081  0.76223224    -0.93100
C2069       C  0.13329302  0.12608636  0.98589232     1.00700
C2070       C  0.20675240  0.12048295  0.90285975     1.13600
C2071       C  0.13535308  0.19901969  0.82992318     1.04400
O2072       O  0.07404985  0.15994950  0.89536278    -0.95300
O2073       O  0.06241534  0.14338179  0.78451079    -0.91000
O2074       O  0.06967261  0.10868136  0.75138730    -0.84100
C2075       C  0.05642261  0.12622988  0.76038505     1.11000
O2076       O  0.17893416  0.18352141  0.78105874    -0.97200
Zr2077     Zr  0.15588527  0.14880511  0.76253732     1.88900
O2078       O  0.11974940  0.11142841  0.69000261    -0.73900
O2079       O  0.06792722  0.18523816  0.80975298    -0.53100
O2080       O  0.14343359  0.18678375  0.73558208    -0.97800
O2081       O  0.19321866  0.13892679  0.72879397    -0.55000
O2082       O  0.14755634  0.13994085  0.68882921    -0.74400
C2083       C  0.13321859  0.12604744  0.67009250     0.98000
O2084       O  0.09103119  0.06939280  0.72354401    -0.63200
O2085       O  0.18281176  0.05917592  0.86936595    -0.58000
O2086       O  0.12235739  0.05861931  0.76743099    -0.94700
O2087       O  0.15689593  0.05479939  0.80315271    -0.93100
O2088       O  0.12425211  0.06397648  0.92771866    -0.93500
O2089       O  0.08191075  0.06763200  0.89501988    -0.92300
C2090       C  0.13932634  0.04615915  0.78239385     1.16800
H2091       H  0.15876877  0.10215979  0.91988050     0.32700
H2092       H  0.07431806  0.10750251  0.83123364     0.43600
H2093       H  0.15999999  0.09982728  0.73753033     0.37100
H2094       H  0.13279661  0.12448242  0.82639008     0.33600
H2095       H  0.07586736  0.12121848  0.95173931     0.25400
H2096       H  0.07270166  0.19936024  0.82633560     0.31300
H2097       H  0.15101737  0.18828938  0.70698944     0.37200
H2098       H  0.13311448  0.05613186  0.90433416     0.31700
H2099       H  0.19979706  0.05810853  0.86311371     0.30600
H2100       H  0.21273893  0.07885358  0.79529571     0.32200
H2101       H  0.19669081  0.15247928  0.70979635     0.31200
H2102       H  0.08252366  0.06145251  0.86515117     0.35200
H2103       H  0.07713161  0.06480561  0.74077706     0.27900
H2104       H  0.15137404  0.19517507  0.93175912     0.32200
H2105       H  0.19475770  0.17742605  0.78785413     0.35000
H2106       H  0.18187116  0.06355067  0.90025646     0.27600
H2107       H  0.08458476  0.07729150  0.69768165     0.40500
H2108       H  0.07373325  0.17722761  0.89938950     0.30600
H2109       H  0.06216657  0.11404925  0.90984813     0.38200
H2110       H  0.18991287  0.12578004  0.70871034     0.30000
H2111       H  0.07118217  0.18907739  0.77921804     0.30100
H2112       H  0.17775313  0.19199712  0.91743765     0.30400
C2113       C  0.14889240  0.13870563  0.55319621    -0.27000
C2114       C  0.12703151  0.13634052  0.53290453    -0.15000
C2115       C  0.10716187  0.13023017  0.55794972     0.35600
C2116       C  0.10975107  0.12614603  0.60240779    -0.26400
C2117       C  0.13169809  0.12807465  0.62250772    -0.15700
C2118       C  0.15153633  0.13427372  0.59749206     0.36700
N2119       N  0.17443684  0.13536578  0.61689293    -0.89900
H2120       H  0.16424961  0.14278289  0.53401209     0.17800
H2121       H  0.09445967  0.12189149  0.62163531     0.17800
N2122       N  0.08443131  0.12809066  0.53813466    -0.88900
H2123       H  0.18708267  0.14023568  0.59416682     0.35100
H2124       H  0.17872181  0.11836638  0.62696488     0.40200
H2125       H  0.07970737  0.14471251  0.52671859     0.39900
H2126       H  0.07178255  0.12325202  0.56087187     0.34800
C2127       C  0.15601697  0.12717382  0.10143708    -0.27000
C2128       C  0.13642463  0.11860432  0.12441611    -0.15000
C2129       C  0.11577815  0.11305397  0.10093166     0.35600
C2130       C  0.11516504  0.11648987  0.05632268    -0.26400
C2131       C  0.13463727  0.12524860  0.03362628    -0.15700
C2132       C  0.15537920  0.13052750  0.05673629     0.36700
N2133       N  0.17630740  0.13859209  0.03581797    -0.89900
H2134       H  0.17214777  0.13139865  0.11830435     0.17800
H2135       H  0.09916219  0.11211985  0.03912998     0.17800
N2136       N  0.09500279  0.10411594  0.12103943    -0.88900
H2137       H  0.17294012  0.15481033  0.02131038     0.35100
H2138       H  0.18105292  0.12639772  0.01210230     0.40200
H2139       H  0.08933121  0.11610688  0.14438786     0.39900
H2140       H  0.09892435  0.08798933  0.13540228     0.34800
C2141       C  0.25711622  0.13503554  0.47953329    -0.27000
C2142       C  0.27137505  0.11522591  0.47379602    -0.15000
C2143       C  0.26304942  0.09626946  0.44862043     0.35600
C2144       C  0.24106524  0.09803412  0.42817799    -0.26400
C2145       C  0.22689737  0.11815107  0.43294134    -0.15700
C2146       C  0.23480934  0.13650247  0.46044554     0.36700
N2147       N  0.22009785  0.15634408  0.46985154    -0.89900
H2148       H  0.26328371  0.14933523  0.49979637     0.17800
H2149       H  0.23516059  0.08366169  0.40787763     0.17800
N2150       N  0.27712294  0.07553909  0.44302022    -0.88900
H2151       H  0.22876017  0.16838083  0.48987638     0.35100
H2152       H  0.20573751  0.15010474  0.48744427     0.40200
H2153       H  0.29214306  0.08038823  0.42584889     0.39900
H2154       H  0.26830123  0.06308405  0.42412957     0.34800
C2155       C  0.34989826  0.13753951  0.84039269    -0.27000
C2156       C  0.37160035  0.13394844  0.86049727    -0.15000
C2157       C  0.39090115  0.12657235  0.83528943     0.35600
C2158       C  0.38791544  0.12199932  0.79115991    -0.26400
C2159       C  0.36603658  0.12497716  0.77122145    -0.15700
C2160       C  0.34688705  0.13298423  0.79628956     0.36700
N2161       N  0.32410379  0.13585786  0.77748818    -0.89900
H2162       H  0.33483874  0.14286619  0.85932354     0.17800
H2163       H  0.40295181  0.11653213  0.77230671     0.17800
N2164       N  0.41366599  0.12391478  0.85427888    -0.88900
H2165       H  0.31892581  0.15331600  0.78205652     0.35100
H2166       H  0.31233324  0.12503052  0.79406826     0.40200
H2167       H  0.42533285  0.13495757  0.83792970     0.39900
H2168       H  0.41908696  0.10654840  0.84950891     0.34800
C2169       C  0.37689749  0.10689549  0.29340330    -0.27000
C2170       C  0.37171967  0.12750082  0.27065559    -0.15000
C2171       C  0.36785837  0.14866205  0.29379947     0.35600
C2172       C  0.36821773  0.14845018  0.33913691    -0.26400
C2173       C  0.37302385  0.12775814  0.36190892    -0.15700
C2174       C  0.37744246  0.10670459  0.33870337     0.36700
N2175       N  0.38184875  0.08502906  0.36114811    -0.89900
H2176       H  0.37984048  0.09068486  0.27579286     0.17800
H2177       H  0.36517235  0.16462718  0.35678833     0.17800
N2178       N  0.36401636  0.17039533  0.27121111    -0.88900
H2179       H  0.38505141  0.07133768  0.33938029     0.35100
H2180       H  0.36655438  0.08054533  0.37784082     0.40200
H2181       H  0.37932035  0.17427594  0.25404532     0.39900
H2182       H  0.36150503  0.18425538  0.29292942     0.34800
C2183       C  0.26693790  0.10157543  0.94693681    -0.27000
C2184       C  0.27203154  0.11998990  0.97565361    -0.15000
C2185       C  0.25512676  0.13786551  0.98205366     0.35600
C2186       C  0.23439669  0.13757882  0.95760039    -0.26400
C2187       C  0.22948828  0.11964740  0.92737882    -0.15700
C2188       C  0.24600311  0.10114664  0.92268503     0.36700
N2189       N  0.24177651  0.08205708  0.89318354    -0.89900
H2190       H  0.27982870  0.08783074  0.94218618     0.17800
H2191       H  0.22185673  0.15156880  0.96294807     0.17800
N2192       N  0.25805711  0.15634603  0.01346389    -0.88900
H2193       H  0.25494147  0.06935646  0.89562940     0.35100
H2194       H  0.24288325  0.08885135  0.86192951     0.40200
H2195       H  0.27305925  0.15395722  0.03218606     0.39900
H2196       H  0.24403512  0.15519814  0.03508774     0.34800
C2197       C  0.39632228  0.98135071  0.62360417    -0.27000
C2198       C  0.37802417  0.96630129  0.61090786    -0.15000
C2199       C  0.35795611  0.97600201  0.59105934     0.35600
C2200       C  0.35574868  0.00054785  0.58783008    -0.26400
C2201       C  0.37339463  0.01584048  0.60307720    -0.15700
C2202       C  0.39424058  0.00590686  0.61975833     0.36700
N2203       N  0.41338836  0.02057207  0.63299204    -0.89900
H2204       H  0.41198478  0.97411386  0.63825036     0.17800
H2205       H  0.33991270  0.00770515  0.57374366     0.17800
N2206       N  0.33981343  0.96086538  0.57442126    -0.88900
H2207       H  0.42817980  0.01579731  0.61512716     0.35100
H2208       H  0.41685304  0.01721102  0.66553173     0.40200
H2209       H  0.34703866  0.95114161  0.54905505     0.39900
H2210       H  0.32611415  0.97072547  0.56126173     0.34800
C2211       C  0.39680528  0.98588822  0.12282653    -0.27000
C2212       C  0.37731636  0.97176679  0.11316802    -0.15000
C2213       C  0.35682100  0.98247906  0.09698199     0.35600
C2214       C  0.35572867  0.00709762  0.09358250    -0.26400
C2215       C  0.37473915  0.02163373  0.10556064    -0.15700
C2216       C  0.39576279  0.01049720  0.11954119     0.36700
N2217       N  0.41628974  0.02344898  0.13149551    -0.89900
H2218       H  0.41264967  0.97784382  0.13522850     0.17800
H2219       H  0.33961363  0.01491665  0.08199867     0.17800
N2220       N  0.33705563  0.96827020  0.08433268    -0.88900
H2221       H  0.41231805  0.03363820  0.15852839     0.35100
H2222       H  0.42127252  0.03420132  0.10574921     0.40200
H2223       H  0.34230633  0.95788539  0.05820569     0.39900
H2224       H  0.32328021  0.97878014  0.07331907     0.34800
C2225       C  0.38371995  0.89068346  0.91889717    -0.27000
C2226       C  0.37584748  0.87069912  0.89611254    -0.15000
C2227       C  0.37206745  0.84960231  0.91930949     0.35600
C2228       C  0.37658293  0.84895076  0.96369383    -0.26400
C2229       C  0.38463320  0.86890438  0.98640653    -0.15700
C2230       C  0.38813986  0.89007004  0.96328402     0.36700
N2231       N  0.39559423  0.91142830  0.98379653    -0.89900
H2232       H  0.38668013  0.90708100  0.90194001     0.17800
H2233       H  0.37358358  0.83255949  0.98065077     0.17800
N2234       N  0.36417057  0.82838902  0.89887733    -0.88900
H2235       H  0.41222338  0.90885820  0.99715486     0.35100
H2236       H  0.38368695  0.91569055  0.00820533     0.40200
H2237       H  0.37595167  0.82388355  0.87441490     0.39900
H2238       H  0.34761419  0.83136849  0.88551787     0.34800
C2239       C  0.40133040  0.88065548  0.41692803    -0.27000
C2240       C  0.38114360  0.87111308  0.39686108    -0.15000
C2241       C  0.36464717  0.85910789  0.42268621     0.35600
C2242       C  0.36912219  0.85622114  0.46698638    -0.26400
C2243       C  0.38933452  0.86566153  0.48690382    -0.15700
C2244       C  0.40544875  0.87834167  0.46147551     0.36700
N2245       N  0.42589319  0.88888354  0.48074271    -0.89900
H2246       H  0.41423199  0.88993879  0.39777361     0.17800
H2247       H  0.35619949  0.84710323  0.48638101     0.17800
N2248       N  0.34322082  0.85021861  0.40429305    -0.88900
H2249       H  0.43566776  0.89806277  0.45771454     0.35100
H2250       H  0.43658103  0.87529495  0.49200552     0.40200
H2251       H  0.33331409  0.86469838  0.39440417     0.39900
H2252       H  0.33321579  0.84149140  0.42757533     0.34800
C2253       C  0.41300133  0.73899984  0.82845717    -0.27000
C2254       C  0.39127383  0.72879990  0.83917065    -0.15000
C2255       C  0.37057754  0.74152781  0.83021059     0.35600
C2256       C  0.37194589  0.76357399  0.81042989    -0.26400
C2257       C  0.39357156  0.77379628  0.79915648    -0.15700
C2258       C  0.41442808  0.76133949  0.80878191     0.36700
N2259       N  0.43697400  0.77133140  0.79897669    -0.89900
H2260       H  0.42900568  0.72948693  0.83535892     0.17800
H2261       H  0.35567127  0.77264303  0.80366915     0.17800
N2262       N  0.34796952  0.73243308  0.84170032    -0.88900
H2263       H  0.45041160  0.75968359  0.80720124     0.35100
H2264       H  0.43916553  0.78615568  0.81860424     0.40200
H2265       H  0.33781558  0.73124555  0.81365852     0.39900
H2266       H  0.33992641  0.74444072  0.86252423     0.34800
C2267       C  0.39131531  0.61506401  0.66595070    -0.27000
C2268       C  0.38784688  0.63703482  0.64638563    -0.15000
C2269       C  0.38103961  0.65632626  0.67241600     0.35600
C2270       C  0.37678977  0.65307518  0.71654869    -0.26400
C2271       C  0.37987688  0.63104406  0.73587703    -0.15700
C2272       C  0.38746182  0.61193209  0.71027955     0.36700
N2273       N  0.39087876  0.58916915  0.72900249    -0.89900
H2274       H  0.39638719  0.60001431  0.64661589     0.17800
H2275       H  0.37181064  0.66810333  0.73604757     0.17800
N2276       N  0.37892818  0.67942647  0.65444366    -0.88900
H2277       H  0.40828677  0.58420514  0.72371822     0.35100
H2278       H  0.38001787  0.57718304  0.71289356     0.40200
H2279       H  0.39045434  0.69059561  0.67097268     0.39900
H2280       H  0.36184319  0.68535640  0.65990984     0.34800
C2281       C  0.38396910  0.61500270  0.21289808    -0.27000
C2282       C  0.37593480  0.63468350  0.23611493    -0.15000
C2283       C  0.37201037  0.65590581  0.21343670     0.35600
C2284       C  0.37604932  0.65684367  0.16887962    -0.26400
C2285       C  0.38414288  0.63713945  0.14562674    -0.15700
C2286       C  0.38815854  0.61594107  0.16848326     0.36700
N2287       N  0.39604175  0.59484968  0.14776896    -0.89900
H2288       H  0.38723122  0.59857420  0.22953311     0.17800
H2289       H  0.37279546  0.67328855  0.15231092     0.17800
N2290       N  0.36458651  0.67700539  0.23466203    -0.88900
H2291       H  0.41259735  0.59789334  0.13446118     0.35100
H2292       H  0.38415977  0.59024761  0.12344627     0.40200
H2293       H  0.37658846  0.68112049  0.25908384     0.39900
H2294       H  0.34807801  0.67406227  0.24819024     0.34800
C2295       C  0.41004252  0.76461214  0.30270717    -0.27000
C2296       C  0.38840038  0.77560429  0.29399355    -0.15000
C2297       C  0.36760242  0.76375951  0.30611665     0.35600
C2298       C  0.36875816  0.74182701  0.32653750    -0.26400
C2299       C  0.39026738  0.73089103  0.33577904    -0.15700
C2300       C  0.41122853  0.74242963  0.32322779     0.36700
N2301       N  0.43361171  0.73159647  0.33077990    -0.89900
H2302       H  0.42618119  0.77334390  0.29351090     0.17800
H2303       H  0.35241730  0.73341760  0.33557902     0.17800
N2304       N  0.34503138  0.77368645  0.29743271    -0.88900
H2305       H  0.44722436  0.74249032  0.32016716     0.35100
H2306       H  0.43433678  0.71635915  0.31188250     0.40200
H2307       H  0.33613387  0.77551204  0.32672988     0.39900
H2308       H  0.33562272  0.76187874  0.27810745     0.34800
C2309       C  0.62268137  0.35066795  0.65802092    -0.27000
C2310       C  0.61725530  0.37113436  0.63451441    -0.15000
C2311       C  0.61632477  0.39285508  0.65684309     0.35600
C2312       C  0.62099457  0.39356948  0.70123196    -0.26400
C2313       C  0.62671803  0.37312607  0.72454765    -0.15700
C2314       C  0.62735444  0.35139607  0.70233389     0.36700
N2315       N  0.63204141  0.32965351  0.72388802    -0.89900
H2316       H  0.62349932  0.33381073  0.64168908     0.17800
H2317       H  0.62009934  0.41037568  0.71772502     0.17800
N2318       N  0.61138160  0.41458024  0.63538110    -0.88900
H2319       H  0.61992728  0.32750508  0.74888715     0.35100
H2320       H  0.64895793  0.33040369  0.73676233     0.40200
H2321       H  0.59458315  0.41359875  0.62197574     0.39900
H2322       H  0.62366326  0.41704079  0.61076419     0.34800
C2323       C  0.62771522  0.34907145  0.15788444    -0.27000
C2324       C  0.62167193  0.36946408  0.13461870    -0.15000
C2325       C  0.62057063  0.39116539  0.15692241     0.35600
C2326       C  0.62458866  0.39179039  0.20141213    -0.26400
C2327       C  0.63024752  0.37137575  0.22475840    -0.15700
C2328       C  0.63208478  0.34977886  0.20233693     0.36700
N2329       N  0.63764423  0.32819089  0.22378091    -0.89900
H2330       H  0.62908754  0.33231221  0.14134610     0.17800
H2331       H  0.62323937  0.40853689  0.21800915     0.17800
N2332       N  0.61632839  0.41300507  0.13531933    -0.88900
H2333       H  0.62531760  0.32527151  0.24815050     0.35100
H2334       H  0.65428911  0.32977328  0.23763839     0.40200
H2335       H  0.59964076  0.41250618  0.12140690     0.39900
H2336       H  0.62891680  0.41518102  0.11113129     0.34800
C2337       C  0.47898108  0.11159712  0.64567454    -0.27000
C2338       C  0.46576207  0.13214578  0.65135730    -0.15000
C2339       C  0.47733486  0.15335069  0.66162247     0.35600
C2340       C  0.50181451  0.15384551  0.66422537    -0.26400
C2341       C  0.51524288  0.13350115  0.65689386    -0.15700
C2342       C  0.50356088  0.11196067  0.64857691     0.36700
N2343       N  0.51652156  0.09049654  0.64344297    -0.89900
H2344       H  0.47016310  0.09526534  0.63757897     0.17800
H2345       H  0.51033513  0.17042850  0.67165636     0.17800
N2346       N  0.46431122  0.17446276  0.66944483    -0.88900
H2347       H  0.50528575  0.07645824  0.63625728     0.35100
H2348       H  0.52424581  0.08662121  0.67319703     0.40200
H2349       H  0.46993644  0.18722083  0.64748337     0.39900
H2350       H  0.46834277  0.18041558  0.70052702     0.34800
C2351       C  0.59413981  0.26015357  0.83473127    -0.27000
C2352       C  0.61428622  0.27435838  0.82958993    -0.15000
C2353       C  0.63367337  0.26484693  0.80679332     0.35600
C2354       C  0.63297387  0.24141950  0.79247041    -0.26400
C2355       C  0.61306446  0.22728900  0.79812509    -0.15700
C2356       C  0.59322377  0.23688195  0.81884773     0.36700
N2357       N  0.57235385  0.22294244  0.82418865    -0.89900
H2358       H  0.57903312  0.26709347  0.85159756     0.17800
H2359       H  0.64795002  0.23433795  0.77534312     0.17800
N2360       N  0.65397576  0.27895090  0.79745172    -0.88900
H2361       H  0.55927377  0.23265812  0.83966467     0.35100
H2362       H  0.57648017  0.20891820  0.84458422     0.40200
H2363       H  0.64874093  0.29182525  0.77548193     0.39900
H2364       H  0.66685955  0.26905048  0.78180898     0.34800
C2365       C  0.50984316  0.11802851  0.13403300    -0.27000
C2366       C  0.52107967  0.13940785  0.14384114    -0.15000
C2367       C  0.50721456  0.15980947  0.14937824     0.35600
C2368       C  0.48273011  0.15831752  0.14609640    -0.26400
C2369       C  0.47150113  0.13691175  0.13671603    -0.15700
C2370       C  0.48529712  0.11661515  0.12976281     0.36700
N2371       N  0.47447977  0.09482630  0.11688755    -0.89900
H2372       H  0.52022975  0.10227077  0.12974940     0.17800
H2373       H  0.47244377  0.17416767  0.15030255     0.17800
N2374       N  0.51786981  0.18225084  0.15746823    -0.88900
H2375       H  0.48705266  0.08160370  0.11343963     0.35100
H2376       H  0.46717455  0.09736038  0.08628489     0.40200
H2377       H  0.51126717  0.18878171  0.18657207     0.39900
H2378       H  0.51284422  0.19372377  0.13282166     0.34800
C2379       C  0.63112655  0.15066139  0.92334807    -0.27000
C2380       C  0.62915050  0.12837942  0.90410040    -0.15000
C2381       C  0.62500999  0.10855860  0.93071805     0.35600
C2382       C  0.62305978  0.11144710  0.97536945    -0.26400
C2383       C  0.62472855  0.13374110  0.99462585    -0.15700
C2384       C  0.62876929  0.15361503  0.96798184     0.36700
N2385       N  0.62955478  0.17710239  0.98481918    -0.89900
H2386       H  0.63376225  0.16607449  0.90336500     0.17800
H2387       H  0.62039873  0.09600230  0.99525033     0.17800
N2388       N  0.62322553  0.08518426  0.91365471    -0.88900
H2389       H  0.64419841  0.17893221  0.00480672     0.35100
H2390       H  0.61431423  0.18012052  0.00270463     0.40200
H2391       H  0.63813917  0.08173009  0.89514168     0.39900
H2392       H  0.60830840  0.08395045  0.89420618     0.34800
C2393       C  0.60505641  0.12308388  0.42392945    -0.27000
C2394       C  0.62668660  0.12923367  0.40474805    -0.15000
C2395       C  0.64512706  0.13720652  0.43140380     0.35600
C2396       C  0.64135799  0.13932357  0.47603220    -0.26400
C2397       C  0.61970668  0.13330214  0.49503571    -0.15700
C2398       C  0.60136588  0.12506082  0.46860322     0.36700
N2399       N  0.57897044  0.11912654  0.48695207    -0.89900
H2400       H  0.59064497  0.11712105  0.40387434     0.17800
H2401       H  0.65570677  0.14526018  0.49628977     0.17800
N2402       N  0.66768793  0.14278761  0.41339523    -0.88900
H2403       H  0.56743491  0.11311315  0.46309521     0.35100
H2404       H  0.57171653  0.13457638  0.49944911     0.40200
H2405       H  0.67480900  0.12717581  0.40132375     0.39900
H2406       H  0.67917708  0.14875356  0.43737111     0.34800
C2407       C  0.59723126  0.23967404  0.30292583    -0.27000
C2408       C  0.61886412  0.22852627  0.29545742    -0.15000
C2409       C  0.63972017  0.24103173  0.30466168     0.35600
C2410       C  0.63857435  0.26359981  0.32275158    -0.26400
C2411       C  0.61698525  0.27458688  0.33131121    -0.15700
C2412       C  0.59603060  0.26258506  0.32020084     0.36700
N2413       N  0.57361233  0.27368395  0.32587357    -0.89900
H2414       H  0.58108521  0.23051394  0.29515252     0.17800
H2415       H  0.65490277  0.27251720  0.33021646     0.17800
N2416       N  0.66222080  0.23121108  0.29486492    -0.88900
H2417       H  0.56001713  0.26233274  0.31677629     0.35100
H2418       H  0.57291600  0.28798317  0.30474135     0.40200
H2419       H  0.67198374  0.23047336  0.32340210     0.39900
H2420       H  0.67082797  0.24255393  0.27355923     0.34800
C2421       C  0.85030798  0.87373780  0.59273131    -0.27000
C2422       C  0.87037729  0.88034394  0.61643446    -0.15000
C2423       C  0.89190585  0.88281171  0.59413405     0.35600
C2424       C  0.89273798  0.87883929  0.54949760    -0.26400
C2425       C  0.87270328  0.87197842  0.52593920    -0.15700
C2426       C  0.85120195  0.86942412  0.54832176     0.36700
N2427       N  0.82979002  0.86304680  0.52700731    -0.89900
H2428       H  0.83359360  0.87166391  0.60893821     0.17800
H2429       H  0.90937816  0.88100039  0.53308719     0.17800
N2430       N  0.91338630  0.88854104  0.61580405    -0.88900
H2431       H  0.83162869  0.84623480  0.51378779     0.35100
H2432       H  0.82646506  0.87514690  0.50240076     0.40200
H2433       H  0.91648366  0.87598556  0.63973865     0.39900
H2434       H  0.91175821  0.90513505  0.63002257     0.34800
C2435       C  0.84920226  0.86407215  0.09166695    -0.27000
C2436       C  0.86888115  0.87150527  0.11561915    -0.15000
C2437       C  0.89049665  0.87468578  0.09388461     0.35600
C2438       C  0.89178053  0.87078787  0.04948283    -0.26400
C2439       C  0.87198105  0.86406632  0.02537144    -0.15700
C2440       C  0.85044086  0.86050722  0.04705736     0.36700
N2441       N  0.82930961  0.85426760  0.02467782    -0.89900
H2442       H  0.83248812  0.86141648  0.10758328     0.17800
H2443       H  0.90843308  0.87363324  0.03343931     0.17800
N2444       N  0.91155550  0.88169490  0.11568868    -0.88900
H2445       H  0.83165717  0.83792132  0.00985612     0.35100
H2446       H  0.82591054  0.86695657  0.00112018     0.40200
H2447       H  0.91497235  0.86985277  0.14067545     0.39900
H2448       H  0.90923874  0.89858272  0.12825416     0.34800
C2449       C  0.61369374  0.99245538  0.61648578    -0.27000
C2450       C  0.63579915  0.98364117  0.60435189    -0.15000
C2451       C  0.65430956  0.99971094  0.59669682     0.35600
C2452       C  0.65029933  0.02390042  0.60155061    -0.26400
C2453       C  0.62853158  0.03263604  0.61544683    -0.15700
C2454       C  0.60982970  0.01672305  0.62205826     0.36700
N2455       N  0.58733572  0.02502220  0.63631027    -0.89900
H2456       H  0.59930817  0.98034558  0.62194682     0.17800
H2457       H  0.66470919  0.03602673  0.59630064     0.17800
N2458       N  0.67740429  0.99150870  0.58577094    -0.88900
H2459       H  0.57605941  0.01090499  0.64254208     0.35100
H2460       H  0.57985165  0.03428729  0.61068665     0.40200
H2461       H  0.68394319  0.98247207  0.61254977     0.39900
H2462       H  0.68881983  0.00562799  0.58045685     0.34800
C2463       C  0.52765651  0.88924036  0.64375455    -0.27000
C2464       C  0.54111706  0.86896917  0.65085313    -0.15000
C2465       C  0.52968791  0.84767733  0.66137414     0.35600
C2466       C  0.50511935  0.84686902  0.66225181    -0.26400
C2467       C  0.49152835  0.86690162  0.65335237    -0.15700
C2468       C  0.50307307  0.88839814  0.64473429     0.36700
N2469       N  0.49004381  0.90948209  0.63711145    -0.89900
H2470       H  0.53618249  0.90567751  0.63544574     0.17800
H2471       H  0.49656085  0.83033738  0.66971361     0.17800
N2472       N  0.54306023  0.82686957  0.67068291    -0.88900
H2473       H  0.49462394  0.91588164  0.60664614     0.35100
H2474       H  0.49512324  0.92198062  0.66010310     0.40200
H2475       H  0.53199105  0.81264348  0.67733054     0.39900
H2476       H  0.55268378  0.83013458  0.69880772     0.34800
C2477       C  0.74011744  0.86282709  0.44312460    -0.27000
C2478       C  0.73190064  0.88401619  0.46104162    -0.15000
C2479       C  0.74503801  0.90490694  0.45424105     0.35600
C2480       C  0.76639427  0.90372823  0.43174598    -0.26400
C2481       C  0.77468370  0.88237738  0.41490131    -0.15700
C2482       C  0.76102151  0.86188135  0.41984181     0.36700
N2483       N  0.76803945  0.84003813  0.40069943    -0.89900
H2484       H  0.73025436  0.84665007  0.44685084     0.17800
H2485       H  0.77672132  0.91959512  0.42769581     0.17800
N2486       N  0.73678982  0.92724524  0.46977842    -0.88900
H2487       H  0.75470973  0.83446437  0.37982703     0.35100
H2488       H  0.76966533  0.82755938  0.42525366     0.40200
H2489       H  0.72198536  0.93160636  0.45157370     0.39900
H2490       H  0.74913625  0.94048361  0.46390655     0.34800
C2491       C  0.65298224  0.02059718  0.11093177    -0.27000
C2492       C  0.63121798  0.03099590  0.12032948    -0.15000
C2493       C  0.61104796  0.01644717  0.12188890     0.35600
C2494       C  0.61337438  0.99191154  0.11590741    -0.26400
C2495       C  0.63529268  0.98157348  0.10728194    -0.15700
C2496       C  0.65521182  0.99629678  0.10456926     0.36700
N2497       N  0.67801907  0.98661719  0.09693739    -0.89900
H2498       H  0.66867277  0.03136935  0.10944752     0.17800
H2499       H  0.59791904  0.98083147  0.11762043     0.17800
N2500       N  0.58841876  0.02638302  0.13083288    -0.88900
H2501       H  0.68884244  0.99115554  0.12292175     0.35100
H2502       H  0.68487113  0.99439679  0.06911496     0.40200
H2503       H  0.57576402  0.01313387  0.13359245     0.39900
H2504       H  0.58361571  0.03632171  0.10392188     0.34800
C2505       C  0.52525490  0.84716290  0.15009639    -0.27000
C2506       C  0.53614784  0.86830147  0.13823463    -0.15000
C2507       C  0.52209956  0.88803876  0.12868971     0.35600
C2508       C  0.49758527  0.88619529  0.13086215    -0.26400
C2509       C  0.48663330  0.86497290  0.14261236    -0.15700
C2510       C  0.50081492  0.84528986  0.15241232     0.36700
N2511       N  0.49058244  0.82316363  0.16413526    -0.89900
H2512       H  0.53578880  0.83177160  0.15699654     0.17800
H2513       H  0.48714010  0.90159661  0.12367696     0.17800
N2514       N  0.53254483  0.90977465  0.11530501    -0.88900
H2515       H  0.49684005  0.81857635  0.19470164     0.35100
H2516       H  0.49626509  0.81044649  0.14211721     0.40200
H2517       H  0.52715762  0.92295445  0.13665360     0.39900
H2518       H  0.52611257  0.91389269  0.08463778     0.34800
C2519       C  0.61612596  0.87326975  0.83424157    -0.27000
C2520       C  0.63626755  0.86761886  0.85827216    -0.15000
C2521       C  0.65811602  0.86624907  0.83688344     0.35600
C2522       C  0.65930527  0.87067541  0.79260777    -0.26400
C2523       C  0.63923760  0.87673786  0.76872473    -0.15700
C2524       C  0.61733275  0.87785511  0.79002902     0.36700
N2525       N  0.59595106  0.88311598  0.76777265    -0.89900
H2526       H  0.59925410  0.87452278  0.85017354     0.17800
H2527       H  0.67621443  0.86958851  0.77677043     0.17800
N2528       N  0.67953222  0.86138431  0.85934496    -0.88900
H2529       H  0.59384864  0.87124243  0.74224417     0.35100
H2530       H  0.59704747  0.90019438  0.75564041     0.40200
H2531       H  0.67836108  0.84465066  0.87306210     0.39900
H2532       H  0.68176247  0.87387133  0.88383197     0.34800
C2533       C  0.65278144  0.86378079  0.29111909    -0.27000
C2534       C  0.63645040  0.87779983  0.26863938    -0.15000
C2535       C  0.61824695  0.88863299  0.29231674     0.35600
C2536       C  0.61688484  0.88514905  0.33717855    -0.26400
C2537       C  0.63329100  0.87120537  0.35962007    -0.15700
C2538       C  0.65125869  0.86007244  0.33582188     0.36700
N2539       N  0.66805721  0.84512141  0.35679957    -0.89900
H2540       H  0.66679302  0.85515947  0.27367975     0.17800
H2541       H  0.60295257  0.89379577  0.35480275     0.17800
N2542       N  0.60118248  0.90317963  0.27112493    -0.88900
H2543       H  0.68088477  0.83946321  0.33507542     0.35100
H2544       H  0.65910238  0.82998691  0.36663173     0.40200
H2545       H  0.60985921  0.91833550  0.26058193     0.39900
H2546       H  0.58835117  0.90881740  0.29285842     0.34800
C2547       C  0.74089213  0.86095833  0.94929022    -0.27000
C2548       C  0.73199590  0.88239511  0.96514153    -0.15000
C2549       C  0.74514012  0.90323935  0.95737821     0.35600
C2550       C  0.76648766  0.90195440  0.93516103    -0.26400
C2551       C  0.77530775  0.88044004  0.91980765    -0.15700
C2552       C  0.76203627  0.85981744  0.92657221     0.36700
N2553       N  0.76956084  0.83762965  0.90959911    -0.89900
H2554       H  0.73132202  0.84469048  0.95402377     0.17800
H2555       H  0.77635512  0.91804086  0.93021406     0.17800
N2556       N  0.73740977  0.92603454  0.97092504    -0.88900
H2557       H  0.75647737  0.83128168  0.88893809     0.35100
H2558       H  0.77119198  0.82585077  0.93529198     0.40200
H2559       H  0.73581672  0.92623426  0.00450937     0.39900
H2560       H  0.72119897  0.92954335  0.95658760     0.34800
C2561       C  0.89609283  0.73668146  0.80365814    -0.27000
C2562       C  0.87468511  0.72684063  0.78959096    -0.15000
C2563       C  0.85375599  0.73929479  0.79858685     0.35600
C2564       C  0.85478237  0.76079005  0.82149971    -0.26400
C2565       C  0.87618399  0.77039846  0.83594509    -0.15700
C2566       C  0.89708973  0.75787970  0.82711588     0.36700
N2567       N  0.91937145  0.76660905  0.84205699    -0.89900
H2568       H  0.91230940  0.72734887  0.79771179     0.17800
H2569       H  0.83869515  0.77041613  0.82707354     0.17800
N2570       N  0.83144311  0.73007079  0.78502293    -0.88900
H2571       H  0.93302754  0.75559533  0.83223084     0.35100
H2572       H  0.91914170  0.76616357  0.87577701     0.40200
H2573       H  0.83112225  0.73041062  0.75129929     0.39900
H2574       H  0.81778958  0.74093208  0.79540777     0.34800
C2575       C  0.89652667  0.73852015  0.31445611    -0.27000
C2576       C  0.87584223  0.72924835  0.29610883    -0.15000
C2577       C  0.85483858  0.74232670  0.30048534     0.35600
C2578       C  0.85498423  0.76362756  0.32394635    -0.26400
C2579       C  0.87558551  0.77245701  0.34312665    -0.15700
C2580       C  0.89661610  0.75965352  0.33810239     0.36700
N2581       N  0.91806209  0.76803162  0.35724460    -0.89900
H2582       H  0.91276585  0.72881345  0.31174357     0.17800
H2583       H  0.83893582  0.77371033  0.32627185     0.17800
N2584       N  0.83334125  0.73396653  0.28158532    -0.88900
H2585       H  0.93199705  0.75675591  0.35013980     0.35100
H2586       H  0.91590266  0.76767786  0.39073257     0.40200
H2587       H  0.83538380  0.73446743  0.24807770     0.39900
H2588       H  0.81945079  0.74525528  0.28892601     0.34800
C2589       C  0.88903715  0.61758412  0.54021943    -0.27000
C2590       C  0.86786626  0.62371699  0.52001070    -0.15000
C2591       C  0.84944537  0.63284931  0.54568963     0.35600
C2592       C  0.85244400  0.63531773  0.59038510    -0.26400
C2593       C  0.87341292  0.62871255  0.61063133    -0.15700
C2594       C  0.89200478  0.62007041  0.58496328     0.36700
N2595       N  0.91410392  0.61408707  0.60399037    -0.89900
H2596       H  0.90359727  0.61110944  0.52118640     0.17800
H2597       H  0.83788716  0.64175169  0.60948747     0.17800
N2598       N  0.82738725  0.63920391  0.52688855    -0.88900
H2599       H  0.92710599  0.62436355  0.58946052     0.35100
H2600       H  0.91759686  0.59644985  0.59692204     0.40200
H2601       H  0.82425300  0.65692463  0.53384341     0.39900
H2602       H  0.81423681  0.62920662  0.54161824     0.34800
C2603       C  0.86361000  0.64686004  0.04027386    -0.27000
C2604       C  0.86979092  0.62541037  0.02046880    -0.15000
C2605       C  0.87822193  0.60685590  0.04611858     0.35600
C2606       C  0.88011750  0.61007382  0.09081783    -0.26400
C2607       C  0.87379697  0.63142983  0.11083696    -0.15700
C2608       C  0.86569913  0.65015125  0.08509441     0.36700
N2609       N  0.85994840  0.67245406  0.10425261    -0.89900
H2610       H  0.85750820  0.66133006  0.02055630     0.17800
H2611       H  0.88610178  0.59545106  0.11025934     0.17800
N2612       N  0.88440652  0.58466395  0.02694384    -0.88900
H2613       H  0.85414449  0.68427385  0.08076952     0.35100
H2614       H  0.87540646  0.67953222  0.11706897     0.40200
H2615       H  0.86908785  0.57721917  0.01426255     0.39900
H2616       H  0.89059552  0.57297584  0.05031413     0.34800
C2617       C  0.61271302  0.73980852  0.57894245    -0.27000
C2618       C  0.63379557  0.73002710  0.59420714    -0.15000
C2619       C  0.65503384  0.74198461  0.58477745     0.35600
C2620       C  0.65457880  0.76304775  0.56046083    -0.26400
C2621       C  0.63339797  0.77285995  0.54559482    -0.15700
C2622       C  0.61224129  0.76068734  0.55463664     0.36700
N2623       N  0.59015542  0.76959879  0.53939591    -0.89900
H2624       H  0.59629451  0.73083841  0.58518155     0.17800
H2625       H  0.67087122  0.77232646  0.55455077     0.17800
N2626       N  0.67704733  0.73281640  0.59976101    -0.88900
H2627       H  0.57623229  0.75907833  0.54991355     0.35100
H2628       H  0.59030616  0.76857663  0.50571418     0.40200
H2629       H  0.67705183  0.73398971  0.63343604     0.39900
H2630       H  0.69098619  0.74325178  0.58904928     0.34800
C2631       C  0.64851552  0.48132812  0.52302359    -0.27000
C2632       C  0.62756593  0.47237076  0.50567830    -0.15000
C2633       C  0.60893393  0.48801153  0.49710663     0.35600
C2634       C  0.61184357  0.51223607  0.50578260    -0.26400
C2635       C  0.63303208  0.52125950  0.52258318    -0.15700
C2636       C  0.65146462  0.50535154  0.53143912     0.36700
N2637       N  0.67352429  0.51341379  0.54810865    -0.89900
H2638       H  0.66301563  0.46956558  0.52964502     0.17800
H2639       H  0.59748770  0.52412425  0.49907536     0.17800
N2640       N  0.58742919  0.47944814  0.47852912    -0.88900
H2641       H  0.68667923  0.50854654  0.52639646     0.35100
H2642       H  0.67666530  0.50479717  0.57732066     0.40200
H2643       H  0.59124402  0.47323416  0.44755125     0.39900
H2644       H  0.57543771  0.49317151  0.47468784     0.34800
C2645       C  0.52424947  0.61781059  0.49476383    -0.27000
C2646       C  0.53756189  0.63849199  0.49063507    -0.15000
C2647       C  0.52587815  0.65992608  0.48276479     0.35600
C2648       C  0.50133365  0.66035034  0.48024453    -0.26400
C2649       C  0.48794115  0.63976333  0.48576675    -0.15700
C2650       C  0.49968953  0.61825020  0.49250889     0.36700
N2651       N  0.48686853  0.59668264  0.49650395    -0.89900
H2652       H  0.53286312  0.60122187  0.50130020     0.17800
H2653       H  0.49274033  0.67701381  0.47426285     0.17800
N2654       N  0.53883214  0.68134442  0.47729845    -0.88900
H2655       H  0.49093849  0.58923696  0.52640220     0.35100
H2656       H  0.49257308  0.58518147  0.47235759     0.40200
H2657       H  0.53324044  0.69330652  0.50078138     0.39900
H2658       H  0.53468487  0.68828586  0.44702861     0.34800
C2659       C  0.73501528  0.59835210  0.70382338    -0.27000
C2660       C  0.73066850  0.61569648  0.67261638    -0.15000
C2661       C  0.74842834  0.63227411  0.66332220     0.35600
C2662       C  0.76971566  0.63149879  0.68570026    -0.26400
C2663       C  0.77399063  0.61472945  0.71820518    -0.15700
C2664       C  0.75625144  0.59796631  0.72739211     0.36700
N2665       N  0.75945371  0.58109631  0.76134175    -0.89900
H2666       H  0.72137557  0.58566360  0.71111158     0.17800
H2667       H  0.78307183  0.64428376  0.67734674     0.17800
N2668       N  0.74563296  0.64975726  0.63045400    -0.88900
H2669       H  0.74496856  0.56984091  0.76336371     0.35100
H2670       H  0.76008775  0.59040628  0.79045325     0.40200
H2671       H  0.73203616  0.66107372  0.63916423     0.39900
H2672       H  0.74122906  0.64134273  0.60151836     0.34800
C2673       C  0.61043524  0.73794354  0.07244179    -0.27000
C2674       C  0.63119315  0.72876006  0.09035791    -0.15000
C2675       C  0.65236982  0.74138973  0.08408930     0.35600
C2676       C  0.65226069  0.76232642  0.05968512    -0.26400
C2677       C  0.63145352  0.77146311  0.04198480    -0.15700
C2678       C  0.61029937  0.75889176  0.04837939     0.36700
N2679       N  0.58860354  0.76749325  0.03081314    -0.89900
H2680       H  0.59407813  0.72849397  0.07644080     0.17800
H2681       H  0.66847881  0.77208086  0.05603050     0.17800
N2682       N  0.67395707  0.73308900  0.10251581    -0.88900
H2683       H  0.57457912  0.75659636  0.03942996     0.35100
H2684       H  0.58991644  0.76677684  0.99719529     0.40200
H2685       H  0.67232206  0.73416611  0.13606305     0.39900
H2686       H  0.68792560  0.74410925  0.09412712     0.34800
C2687       C  0.65087267  0.47899412  0.02846371    -0.27000
C2688       C  0.62955802  0.46997013  0.01272877    -0.15000
C2689       C  0.61016720  0.48518634  0.00839464     0.35600
C2690       C  0.61280522  0.50916329  0.01863653    -0.26400
C2691       C  0.63439488  0.51837521  0.03294890    -0.15700
C2692       C  0.65344457  0.50284497  0.03886334     0.36700
N2693       N  0.67564552  0.51116017  0.05443947    -0.89900
H2694       H  0.66585223  0.46747014  0.03226604     0.17800
H2695       H  0.59793479  0.52078919  0.01471683     0.17800
N2696       N  0.58812896  0.47651552  0.99223972    -0.88900
H2697       H  0.68840650  0.50721455  0.03134779     0.35100
H2698       H  0.67970717  0.50192139  0.08260809     0.40200
H2699       H  0.59070465  0.47130505  0.96022330     0.39900
H2700       H  0.57563374  0.48994047  0.99155555     0.34800
C2701       C  0.52346068  0.61293645  0.99933124    -0.27000
C2702       C  0.53710925  0.63285656  0.99031898    -0.15000
C2703       C  0.52591826  0.65383161  0.97760699     0.35600
C2704       C  0.50132529  0.65472388  0.97640855    -0.26400
C2705       C  0.48743646  0.63506395  0.98729952    -0.15700
C2706       C  0.49898055  0.61377074  0.99817631     0.36700
N2707       N  0.48659631  0.59261676  0.00840852    -0.89900
H2708       H  0.53183262  0.59674679  0.00939749     0.17800
H2709       H  0.49300665  0.67104141  0.96700680     0.17800
N2710       N  0.53956514  0.67420792  0.96625065    -0.88900
H2711       H  0.47559244  0.58820246  0.98262565     0.35100
H2712       H  0.47682858  0.59555296  0.03633862     0.40200
H2713       H  0.52867534  0.68819485  0.95757048     0.39900
H2714       H  0.54937234  0.66992848  0.93886213     0.34800
C2715       C  0.61341923  0.62204876  0.80262848    -0.27000
C2716       C  0.63184935  0.63298922  0.77983042    -0.15000
C2717       C  0.65173784  0.64077006  0.80317822     0.35600
C2718       C  0.65270267  0.63728588  0.84805652    -0.26400
C2719       C  0.63456173  0.62577403  0.87070142    -0.15700
C2720       C  0.61443957  0.61851166  0.84756339     0.36700
N2721       N  0.59495902  0.60782837  0.86955934    -0.89900
H2722       H  0.59799047  0.61612766  0.78527660     0.17800
H2723       H  0.66816950  0.64320314  0.86529564     0.17800
N2724       N  0.67127238  0.65152039  0.78138913    -0.88900
H2725       H  0.58187254  0.60289420  0.84766534     0.35100
H2726       H  0.58756014  0.62062749  0.88960453     0.40200
H2727       H  0.67915992  0.63858053  0.76230586     0.39900
H2728       H  0.68403232  0.65702460  0.80348430     0.34800
C2729       C  0.65149650  0.64319664  0.29998273    -0.27000
C2730       C  0.63056739  0.63619983  0.27981043    -0.15000
C2731       C  0.61231219  0.62680520  0.30540537     0.35600
C2732       C  0.61577274  0.62335732  0.34970050    -0.26400
C2733       C  0.63697956  0.62960820  0.36973867    -0.15700
C2734       C  0.65489919  0.64000509  0.34440243     0.36700
N2735       N  0.67683165  0.64694439  0.36321076    -0.89900
H2736       H  0.66575709  0.65038147  0.28099392     0.17800
H2737       H  0.60152464  0.61604338  0.36854611     0.17800
N2738       N  0.59005787  0.62092712  0.28672327    -0.88900
H2739       H  0.67918847  0.66493602  0.35770413     0.35100
H2740       H  0.69026985  0.63790404  0.34739783     0.40200
H2741       H  0.57713089  0.63065424  0.30261307     0.39900
H2742       H  0.58681507  0.60308653  0.29235239     0.34800
C2743       C  0.74587538  0.63653802  0.16595205    -0.27000
C2744       C  0.73046742  0.61778084  0.17365542    -0.15000
C2745       C  0.73807166  0.59880170  0.19943405     0.35600
C2746       C  0.76062479  0.59941292  0.21803363    -0.26400
C2747       C  0.77601097  0.61843129  0.21109846    -0.15700
C2748       C  0.76868672  0.63682717  0.18322798     0.36700
N2749       N  0.78444994  0.65555388  0.17169579    -0.89900
H2750       H  0.74028042  0.65080229  0.14522455     0.17800
H2751       H  0.76599345  0.58508040  0.23876028     0.17800
N2752       N  0.72272051  0.57919934  0.20745125    -0.88900
H2753       H  0.77612935  0.66784751  0.15187909     0.35100
H2754       H  0.79794671  0.64818743  0.15331270     0.40200
H2755       H  0.70853742  0.58539662  0.22551404     0.39900
H2756       H  0.73110478  0.56653295  0.22636031     0.34800
C2757       C  0.26388175  0.85529140  0.73691501    -0.27000
C2758       C  0.27897346  0.85354223  0.70172001    -0.15000
C2759       C  0.26975031  0.84918171  0.65998788     0.35600
C2760       C  0.24554722  0.84930856  0.65356136    -0.26400
C2761       C  0.23051403  0.85390275  0.68803710    -0.15700
C2762       C  0.23959284  0.85539909  0.73049386     0.36700
N2763       N  0.22404636  0.85767349  0.76667942    -0.89900
H2764       H  0.27102616  0.85805155  0.76896126     0.17800
H2765       H  0.23860874  0.84749410  0.62114594     0.17800
N2766       N  0.28455821  0.84485501  0.62355787    -0.88900
H2767       H  0.23351925  0.85911835  0.79547545     0.35100
H2768       H  0.21456008  0.84196943  0.76856168     0.40200
H2769       H  0.29556226  0.83076447  0.63107584     0.39900
H2770       H  0.29478701  0.85973726  0.61755746     0.34800
C2771       C  0.98108837  0.84860989  0.73686267    -0.27000
C2772       C  0.97015239  0.87066815  0.74057157    -0.15000
C2773       C  0.98429818  0.89118642  0.74126666     0.35600
C2774       C  0.00887005  0.88897639  0.74024933    -0.26400
C2775       C  0.01963626  0.86684108  0.73779272    -0.15700
C2776       C  0.00552657  0.84642358  0.73605632     0.36700
N2777       N  0.01603837  0.82345927  0.73440211    -0.89900
H2778       H  0.97051041  0.83275506  0.73607047     0.17800
H2779       H  0.01967648  0.90468287  0.74038105     0.17800
N2780       N  0.97387921  0.91413040  0.74391164    -0.88900
H2781       H  0.00319574  0.81032211  0.73283788     0.35100
H2782       H  0.02508489  0.82095095  0.76338742     0.40200
H2783       H  0.96539106  0.91716396  0.71454182     0.39900
H2784       H  0.98680074  0.92713457  0.74662598     0.34800
C2785       C  0.15499149  0.98082569  0.77664938    -0.27000
C2786       C  0.13322497  0.97054653  0.76624875    -0.15000
C2787       C  0.11342942  0.98523500  0.76188586     0.35600
C2788       C  0.11594323  0.00970250  0.76751261    -0.26400
C2789       C  0.13784801  0.02007792  0.77683669    -0.15700
C2790       C  0.15760536  0.00527973  0.78172324     0.36700
N2791       N  0.18037032  0.01500797  0.79105045    -0.89900
H2792       H  0.17028152  0.96969675  0.78005068     0.17800
H2793       H  0.10060221  0.02075339  0.76421253     0.17800
N2794       N  0.09097612  0.97545618  0.75051778    -0.88900
H2795       H  0.18555677  0.02487486  0.76425416     0.35100
H2796       H  0.19282195  0.00168521  0.79468277     0.40200
H2797       H  0.09228640  0.96880727  0.71913392     0.39900
H2798       H  0.07816211  0.98856918  0.74960576     0.34800
C2799       C  0.26496102  0.84922572  0.18964948    -0.27000
C2800       C  0.27442710  0.86868085  0.21173796    -0.15000
C2801       C  0.26039331  0.88867836  0.21829671     0.35600
C2802       C  0.23790178  0.88954560  0.20044508    -0.26400
C2803       C  0.22819379  0.87043125  0.17753641    -0.15700
C2804       C  0.24187145  0.84979030  0.17271779     0.36700
N2805       N  0.23264208  0.82976109  0.14995790    -0.89900
H2806       H  0.27602637  0.83412109  0.18349366     0.17800
H2807       H  0.22789515  0.90549072  0.20490960     0.17800
N2808       N  0.26951529  0.90850512  0.24195497    -0.88900
H2809       H  0.24477628  0.81600204  0.14993598     0.35100
H2810       H  0.23031784  0.83468859  0.11775520     0.40200
H2811       H  0.27266482  0.90294065  0.27356376     0.39900
H2812       H  0.25707925  0.92195073  0.24388799     0.34800
C2813       C  0.00405915  0.84495955  0.21800924    -0.27000
C2814       C  0.01785374  0.86089809  0.24223500    -0.15000
C2815       C  0.00631902  0.87888243  0.26562944     0.35600
C2816       C  0.98184516  0.88113210  0.26254048    -0.26400
C2817       C  0.96827645  0.86514899  0.23868762    -0.15700
C2818       C  0.97953373  0.84667582  0.21628767     0.36700
N2819       N  0.96677062  0.82935590  0.19168589    -0.89900
H2820       H  0.01232019  0.83098773  0.19975431     0.17800
H2821       H  0.97308751  0.89461506  0.28130899     0.17800
N2822       N  0.01924746  0.89444434  0.29346176    -0.88900
H2823       H  0.97249267  0.83046473  0.15971290     0.35100
H2824       H  0.94885666  0.83303306  0.19087638     0.40200
H2825       H  0.02596443  0.88428819  0.31868773     0.39900
H2826       H  0.00816838  0.90686907  0.30765844     0.34800
C2827       C  0.14299976  0.97688774  0.30132005    -0.27000
C2828       C  0.12502473  0.96868361  0.27425540    -0.15000
C2829       C  0.10869990  0.98499026  0.25730301     0.35600
C2830       C  0.11133665  0.00898933  0.26688157    -0.26400
C2831       C  0.12994145  0.01749758  0.29256131    -0.15700
C2832       C  0.14549238  0.00092079  0.31129535     0.36700
N2833       N  0.16396389  0.00834275  0.33990201    -0.89900
H2834       H  0.15541975  0.96437099  0.31441231     0.17800
H2835       H  0.09890953  0.02114589  0.25280843     0.17800
N2836       N  0.08983756  0.97825284  0.22892269    -0.88900
H2837       H  0.17440650  0.99408482  0.34896391     0.35100
H2838       H  0.15604110  0.01440531  0.36820817     0.40200
H2839       H  0.08949638  0.96023386  0.22289821     0.39900
H2840       H  0.09277474  0.98635239  0.19914549     0.34800
C2841       C  0.10830697  0.88439881  0.96699229    -0.27000
C2842       C  0.12586212  0.87146106  0.98856513    -0.15000
C2843       C  0.14054236  0.85658603  0.96396118     0.35600
C2844       C  0.13692837  0.85466788  0.91925374    -0.26400
C2845       C  0.11929094  0.86751235  0.89782811    -0.15700
C2846       C  0.10476873  0.88249744  0.92224644     0.36700
N2847       N  0.08625751  0.89552299  0.90183163    -0.89900
H2848       H  0.09683406  0.89587890  0.98515976     0.17800
H2849       H  0.14847220  0.84334452  0.90089989     0.17800
N2850       N  0.15904481  0.84339238  0.98406378    -0.88900
H2851       H  0.07743854  0.90602117  0.92426162     0.35100
H2852       H  0.07399923  0.88335273  0.89019328     0.40200
H2853       H  0.17173994  0.85543559  0.99449427     0.39900
H2854       H  0.16735105  0.83242381  0.96172203     0.34800
C2855       C  0.11981499  0.88648567  0.41842027    -0.27000
C2856       C  0.12343748  0.86461982  0.39865729    -0.15000
C2857       C  0.13194404  0.84564789  0.42383293     0.35600
C2858       C  0.13652570  0.84908223  0.46800074    -0.26400
C2859       C  0.13238583  0.87084565  0.48791083    -0.15700
C2860       C  0.12433462  0.88990193  0.46247897     0.36700
N2861       N  0.12091669  0.91277178  0.48133549    -0.89900
H2862       H  0.11407103  0.90126994  0.39912117     0.17800
H2863       H  0.14242489  0.83438582  0.48732815     0.17800
N2864       N  0.13555766  0.82285874  0.40475308    -0.88900
H2865       H  0.11439920  0.92461705  0.45853308     0.35100
H2866       H  0.13739135  0.91909506  0.49065821     0.40200
H2867       H  0.11917173  0.81643361  0.39509524     0.39900
H2868       H  0.14208209  0.81100080  0.42752753     0.34800
C2869       C  0.23533897  0.64374767  0.90862421    -0.27000
C2870       C  0.22946243  0.64552232  0.95269918    -0.15000
C2871       C  0.24724974  0.65059270  0.98309445     0.35600
C2872       C  0.27053516  0.65131578  0.96900158    -0.26400
C2873       C  0.27649872  0.64669212  0.92582986    -0.15700
C2874       C  0.25865971  0.64401917  0.89477699     0.36700
N2875       N  0.26345641  0.64030100  0.84972918    -0.89900
H2876       H  0.22168882  0.64057039  0.88490740     0.17800
H2877       H  0.28431440  0.65358769  0.99276550     0.17800
N2878       N  0.24291249  0.65299575  0.02857027    -0.88900
H2879       H  0.25766848  0.62338625  0.84167753     0.35100
H2880       H  0.28139466  0.64090105  0.84323918     0.40200
H2881       H  0.22533717  0.65045678  0.03635838     0.39900
H2882       H  0.24717244  0.67026043  0.03729187     0.34800
C2883       C  0.00459041  0.65652546  0.91249252    -0.27000
C2884       C  0.01784620  0.63584422  0.90819494    -0.15000
C2885       C  0.00608546  0.61425306  0.90186558     0.35600
C2886       C  0.98164541  0.61387298  0.89755631    -0.26400
C2887       C  0.96850021  0.63466309  0.89993247    -0.15700
C2888       C  0.98005591  0.65616061  0.90879070     0.36700
N2889       N  0.96687626  0.67752754  0.91384555    -0.89900
H2890       H  0.01341037  0.67311397  0.91853477     0.17800
H2891       H  0.97302707  0.59723087  0.89099321     0.17800
N2892       N  0.01876375  0.59255856  0.90070748    -0.88900
H2893       H  0.97804175  0.69176988  0.91994421     0.35100
H2894       H  0.95631083  0.67559514  0.94117088     0.40200
H2895       H  0.01524593  0.58428154  0.87123981     0.39900
H2896       H  0.01238823  0.58178397  0.92537837     0.34800
C2897       C  0.13782866  0.73627710  0.07185515    -0.27000
C2898       C  0.11657614  0.72646581  0.05699681    -0.15000
C2899       C  0.09562406  0.73950031  0.06297411     0.35600
C2900       C  0.09659323  0.76171856  0.08315089    -0.26400
C2901       C  0.11797285  0.77170242  0.09652271    -0.15700
C2902       C  0.13871099  0.75854413  0.09132024     0.36700
N2903       N  0.16074181  0.76742525  0.10663488    -0.89900
H2904       H  0.15412637  0.72672747  0.06821327     0.17800
H2905       H  0.08053607  0.77161013  0.08733598     0.17800
N2906       N  0.07341005  0.73040389  0.04851528    -0.88900
H2907       H  0.17231543  0.76819417  0.08052797     0.35100
H2908       H  0.16746403  0.75547603  0.12904569     0.40200
H2909       H  0.07337817  0.73114280  0.01481193     0.39900
H2910       H  0.05969228  0.74125881  0.05863318     0.34800
C2911       C  0.23529415  0.64931315  0.41715296    -0.27000
C2912       C  0.22914321  0.64747373  0.46098453    -0.15000
C2913       C  0.24684059  0.64870083  0.49272021     0.35600
C2914       C  0.27027557  0.64958023  0.47942302    -0.26400
C2915       C  0.27650376  0.64898276  0.43544569    -0.15700
C2916       C  0.25872243  0.64999951  0.40382289     0.36700
N2917       N  0.26349935  0.65025100  0.35826798    -0.89900
H2918       H  0.22170427  0.64873087  0.39272885     0.17800
H2919       H  0.28387833  0.64901897  0.50385134     0.17800
N2920       N  0.24204019  0.64709748  0.53816857    -0.88900
H2921       H  0.25731232  0.63442230  0.34527556     0.35100
H2922       H  0.28138878  0.65100013  0.35170500     0.40200
H2923       H  0.22412415  0.64586239  0.54443503     0.39900
H2924       H  0.24782150  0.66273027  0.55251856     0.34800
C2925       C  0.98040904  0.65374265  0.39971020    -0.27000
C2926       C  0.96942023  0.63163634  0.39646274    -0.15000
C2927       C  0.98356435  0.61120526  0.39541545     0.35600
C2928       C  0.00817742  0.61351208  0.39617540    -0.26400
C2929       C  0.01901970  0.63568720  0.39886001    -0.15700
C2930       C  0.00486626  0.65603882  0.40067279     0.36700
N2931       N  0.01533836  0.67906382  0.40293575    -0.89900
H2932       H  0.96983037  0.66954592  0.40043175     0.17800
H2933       H  0.01894834  0.59783774  0.39584004     0.17800
N2934       N  0.97307861  0.58824467  0.39270900    -0.88900
H2935       H  0.00248193  0.69212216  0.40447299     0.35100
H2936       H  0.02455169  0.68178575  0.37422010     0.40200
H2937       H  0.96480202  0.58508923  0.42222158     0.39900
H2938       H  0.98595564  0.57529386  0.38956519     0.34800
C2939       C  0.10436731  0.62629244  0.67461717    -0.27000
C2940       C  0.12555513  0.63354190  0.65513367    -0.15000
C2941       C  0.14376228  0.64221828  0.68162017     0.35600
C2942       C  0.14024963  0.64364318  0.72644170    -0.26400
C2943       C  0.11915109  0.63618728  0.74592074    -0.15700
C2944       C  0.10101436  0.62735843  0.71952866     0.36700
N2945       N  0.07922949  0.61966579  0.73814568    -0.89900
H2946       H  0.09012032  0.61986009  0.65464969     0.17800
H2947       H  0.15447747  0.65006196  0.74648826     0.17800
N2948       N  0.16590865  0.64906245  0.66330714    -0.88900
H2949       H  0.06786308  0.61336696  0.71425039     0.35100
H2950       H  0.07113210  0.63437232  0.75182658     0.40200
H2951       H  0.17364496  0.63396181  0.65036794     0.39900
H2952       H  0.17731086  0.65521228  0.68727196     0.34800
C2953       C  0.13695096  0.64915370  0.17478481    -0.27000
C2954       C  0.13311785  0.62734684  0.15483182    -0.15000
C2955       C  0.12532298  0.60819940  0.18017349     0.35600
C2956       C  0.12108096  0.61132526  0.22438613    -0.26400
C2957       C  0.12470903  0.63319954  0.24435384    -0.15700
C2958       C  0.13286309  0.65227709  0.21900113     0.36700
N2959       N  0.13671613  0.67503794  0.23770739    -0.89900
H2960       H  0.14242497  0.66417172  0.15575520     0.17800
H2961       H  0.11542714  0.59634246  0.24330836     0.17800
N2962       N  0.12192089  0.58541607  0.16129229    -0.88900
H2963       H  0.12613975  0.68716160  0.22151895     0.35100
H2964       H  0.15423410  0.67971926  0.23251228     0.40200
H2965       H  0.10449172  0.58038235  0.16636626     0.39900
H2966       H  0.13271917  0.57348641  0.17746785     0.34800
C2967       C  0.09593286  0.75978538  0.59229831    -0.27000
C2968       C  0.11548776  0.77473729  0.58693974    -0.15000
C2969       C  0.13391507  0.76720903  0.55945793     0.35600
C2970       C  0.13344955  0.74443755  0.54198936    -0.26400
C2971       C  0.11418613  0.72947398  0.54792760    -0.15700
C2972       C  0.09487715  0.73746527  0.57227683     0.36700
N2973       N  0.07443642  0.72285170  0.57700292    -0.89900
H2974       H  0.08144154  0.76541965  0.61234339     0.17800
H2975       H  0.14795306  0.73859980  0.52211138     0.17800
N2976       N  0.15274672  0.78286306  0.54807871    -0.88900
H2977       H  0.06165629  0.73143369  0.59532321     0.35100
H2978       H  0.07935078  0.70788851  0.59432388     0.40200
H2979       H  0.14547826  0.79648366  0.52984905     0.39900
H2980       H  0.16489316  0.77449560  0.52803775     0.34800
C2981       C  0.12622240  0.25525176  0.76535676    -0.27000
C2982       C  0.14285853  0.27008976  0.78356696    -0.15000
C2983       C  0.15923287  0.26103874  0.81331615     0.35600
C2984       C  0.15760415  0.23739717  0.82662956    -0.26400
C2985       C  0.13951601  0.22284283  0.81106083    -0.15700
C2986       C  0.12436320  0.23188463  0.77836031     0.36700
N2987       N  0.10638891  0.21779197  0.75878874    -0.89900
H2988       H  0.11352334  0.26225210  0.74270970     0.17800
H2989       H  0.16961958  0.23091107  0.85092942     0.17800
N2990       N  0.17646085  0.27625758  0.83225047    -0.88900
H2991       H  0.10914408  0.21761743  0.72543667     0.35100
H2992       H  0.09027462  0.22597900  0.76442323     0.40200
H2993       H  0.19301000  0.26916027  0.82599122     0.39900
H2994       H  0.17394563  0.27631200  0.86566235     0.34800
C2995       C  0.15092913  0.49950515  0.84106450    -0.27000
C2996       C  0.13262461  0.48440795  0.85401721    -0.15000
C2997       C  0.11203756  0.49456642  0.87146819     0.35600
C2998       C  0.11082332  0.51898012  0.87815785    -0.26400
C2999       C  0.12963038  0.53368601  0.86722955    -0.15700
C3000       C  0.14950524  0.52389905  0.84720200     0.36700
N3001       N  0.16823566  0.53875273  0.83270038    -0.89900
H3002       H  0.16666185  0.49241920  0.82646311     0.17800
H3003       H  0.09533589  0.52635222  0.89320705     0.17800
N3004       N  0.09215834  0.48033473  0.88215244    -0.88900
H3005       H  0.17031028  0.53615343  0.79951697     0.35100
H3006       H  0.18367287  0.53343912  0.84803480     0.40200
H3007       H  0.07778884  0.48636386  0.86438074     0.39900
H3008       H  0.08846533  0.48272030  0.91490453     0.34800
C3009       C  0.10881277  0.23797601  0.32141814    -0.27000
C3010       C  0.12957297  0.22903202  0.33973590    -0.15000
C3011       C  0.15066066  0.24161772  0.33259717     0.35600
C3012       C  0.15039262  0.26286779  0.30902389    -0.26400
C3013       C  0.12950282  0.27187858  0.29137201    -0.15700
C3014       C  0.10866053  0.25872248  0.29690018     0.36700
N3015       N  0.08717078  0.26620215  0.27729755    -0.89900
H3016       H  0.09241122  0.22854887  0.32517716     0.17800
H3017       H  0.16658213  0.27271530  0.30572978     0.17800
N3018       N  0.17246797  0.23299301  0.34905440    -0.88900
H3019       H  0.07466888  0.26836229  0.30163406     0.35100
H3020       H  0.08135452  0.25278437  0.25675517     0.40200
H3021       H  0.17965307  0.24586674  0.36928727     0.39900
H3022       H  0.18386915  0.23059088  0.32302348     0.34800
C3023       C  0.11448713  0.49213740  0.37418238    -0.27000
C3024       C  0.13610828  0.48255187  0.36121592    -0.15000
C3025       C  0.15546564  0.49792368  0.35565672     0.35600
C3026       C  0.15271476  0.52215366  0.36338243    -0.26400
C3027       C  0.13118278  0.53168070  0.37679178    -0.15700
C3028       C  0.11176863  0.51632417  0.38165355     0.36700
N3029       N  0.08921222  0.52453848  0.39512861    -0.89900
H3030       H  0.09938548  0.48075928  0.37832246     0.17800
H3031       H  0.16770698  0.53370911  0.35947823     0.17800
N3032       N  0.17804060  0.48894722  0.34326473    -0.88900
H3033       H  0.08283701  0.53615944  0.37187047     0.35100
H3034       H  0.09104913  0.53340973  0.42451968     0.40200
H3035       H  0.18414813  0.47853138  0.36864746     0.39900
H3036       H  0.19017356  0.50262256  0.33965671     0.34800
C3037       C  0.15593912  0.36995895  0.54085336    -0.27000
C3038       C  0.13543121  0.37560767  0.51775750    -0.15000
C3039       C  0.11383308  0.37631611  0.54012425     0.35600
C3040       C  0.11340507  0.37218446  0.58459825    -0.26400
C3041       C  0.13401674  0.36720664  0.60785451    -0.15700
C3042       C  0.15548946  0.36569569  0.58526058     0.36700
N3043       N  0.17724322  0.36068443  0.60650323    -0.89900
H3044       H  0.17263787  0.36898397  0.52426017     0.17800
H3045       H  0.09675620  0.37327192  0.60134188     0.17800
N3046       N  0.09199578  0.38063505  0.51868179    -0.88900
H3047       H  0.17610976  0.34402502  0.62055005     0.35100
H3048       H  0.18008623  0.37325121  0.63063258     0.40200
H3049       H  0.08989698  0.36828444  0.49392341     0.39900
H3050       H  0.09239970  0.39752014  0.50548256     0.34800
C3051       C  0.15327344  0.37013639  0.04080214    -0.27000
C3052       C  0.13468209  0.38042499  0.01753663    -0.15000
C3053       C  0.11394810  0.38642059  0.04000122     0.35600
C3054       C  0.11232022  0.38167896  0.08449087    -0.26400
C3055       C  0.13100719  0.37149144  0.10763372    -0.15700
C3056       C  0.15169228  0.36553768  0.08520465     0.36700
N3057       N  0.17142223  0.35564170  0.10763141    -0.89900
H3058       H  0.16933210  0.36549530  0.02424189     0.17800
H3059       H  0.09642046  0.38646698  0.10145583     0.17800
N3060       N  0.09453051  0.39710139  0.01788262    -0.88900
H3061       H  0.18585565  0.35403895  0.08706612     0.35100
H3062       H  0.16682778  0.33851142  0.11650380     0.40200
H3063       H  0.09968499  0.41412948  0.00935395     0.39900
H3064       H  0.08020056  0.39904553  0.03859475     0.34800
C3065       C  0.39075509  0.23446874  0.56822050    -0.27000
C3066       C  0.37125212  0.22581711  0.54509779    -0.15000
C3067       C  0.35034266  0.23925028  0.54536786     0.35600
C3068       C  0.34987616  0.26116766  0.56697487    -0.26400
C3069       C  0.36973997  0.26996884  0.58856530    -0.15700
C3070       C  0.38998005  0.25571934  0.59102936     0.36700
N3071       N  0.41025685  0.26252350  0.61582381    -0.89900
H3072       H  0.40676865  0.22430153  0.56994664     0.17800
H3073       H  0.33446658  0.27219068  0.56427149     0.17800
N3074       N  0.32982847  0.23099650  0.52295757    -0.88900
H3075       H  0.41316674  0.24935610  0.63872124     0.35100
H3076       H  0.40700771  0.27777904  0.63363747     0.40200
H3077       H  0.33369198  0.23095622  0.48998426     0.39900
H3078       H  0.31584857  0.24263145  0.52723167     0.34800
C3079       C  0.47728161  0.35038805  0.47138839    -0.27000
C3080       C  0.46655543  0.37218732  0.47944905    -0.15000
C3081       C  0.48082165  0.39243927  0.48293083     0.35600
C3082       C  0.50529801  0.39045850  0.47884084    -0.26400
C3083       C  0.51600999  0.36853139  0.47161352    -0.15700
C3084       C  0.50167214  0.34835573  0.46775993     0.36700
N3085       N  0.51179073  0.32554607  0.46170319    -0.89900
H3086       H  0.46671750  0.33455209  0.46917826     0.17800
H3087       H  0.51595259  0.40620358  0.48154180     0.17800
N3088       N  0.47071589  0.41489951  0.49241048    -0.88900
H3089       H  0.50489876  0.31833271  0.43332608     0.35100
H3090       H  0.50664940  0.31487625  0.48747452     0.40200
H3091       H  0.47529321  0.42649991  0.46766303     0.39900
H3092       H  0.47810078  0.42114509  0.52113632     0.34800
C3093       C  0.39036654  0.49520330  0.51067041    -0.27000
C3094       C  0.36920213  0.48588011  0.52682117    -0.15000
C3095       C  0.35088033  0.50179705  0.53724730     0.35600
C3096       C  0.35417748  0.52597242  0.53148076    -0.26400
C3097       C  0.37521488  0.53522631  0.51501097    -0.15700
C3098       C  0.39353646  0.51946205  0.50461110     0.36700
N3099       N  0.41520061  0.52734006  0.48623727    -0.89900
H3100       H  0.40467216  0.48354330  0.50235169     0.17800
H3101       H  0.33978740  0.53767511  0.53920463     0.17800
N3102       N  0.32830880  0.49414299  0.55197086    -0.88900
H3103       H  0.42356683  0.53842856  0.50835092     0.35100
H3104       H  0.41156214  0.53673353  0.45805256     0.40200
H3105       H  0.33008785  0.48613456  0.58208828     0.39900
H3106       H  0.32137517  0.48218434  0.52965822     0.34800
C3107       C  0.26768262  0.40485730  0.68914380    -0.27000
C3108       C  0.27407366  0.38469596  0.66562453    -0.15000
C3109       C  0.25810254  0.36590631  0.66240298     0.35600
C3110       C  0.23667180  0.36704927  0.68422162    -0.26400
C3111       C  0.23043569  0.38682831  0.70924169    -0.15700
C3112       C  0.24602054  0.40616921  0.71065242     0.36700
N3113       N  0.24007953  0.42715589  0.73376448    -0.89900
H3114       H  0.27968676  0.41962721  0.69127457     0.17800
H3115       H  0.22480923  0.35224234  0.68105968     0.17800
N3116       N  0.26321556  0.34591496  0.63582763    -0.88900
H3117       H  0.24032936  0.44119081  0.71201201     0.35100
H3118       H  0.25302208  0.43020393  0.75704189     0.40200
H3119       H  0.25010060  0.34454302  0.61233674     0.39900
H3120       H  0.26246102  0.33085966  0.65509985     0.34800
C3121       C  0.35439816  0.26423162  0.07704672    -0.27000
C3122       C  0.37609308  0.27411267  0.08895167    -0.15000
C3123       C  0.39677144  0.26190108  0.07771918     0.35600
C3124       C  0.39538117  0.24083567  0.05414729    -0.26400
C3125       C  0.37370338  0.23081322  0.04217891    -0.15700
C3126       C  0.35291053  0.24287774  0.05442075     0.36700
N3127       N  0.32993426  0.23403625  0.04493429    -0.89900
H3128       H  0.33826644  0.27336919  0.08467911     0.17800
H3129       H  0.41161571  0.23197504  0.04619305     0.17800
N3130       N  0.41935123  0.27059290  0.09050536    -0.88900
H3131       H  0.32758935  0.21794713  0.06059939     0.35100
H3132       H  0.32832908  0.23178288  0.01158525     0.40200
H3133       H  0.42954516  0.27282001  0.06278913     0.39900
H3134       H  0.42739169  0.25778587  0.10959833     0.34800
C3135       C  0.50329039  0.34787513  0.96631279    -0.27000
C3136       C  0.51690234  0.36801840  0.97499800    -0.15000
C3137       C  0.50529140  0.38944396  0.98372988     0.35600
C3138       C  0.48070095  0.39003400  0.98563763    -0.26400
C3139       C  0.46727160  0.36961645  0.97899879    -0.15700
C3140       C  0.47875695  0.34852984  0.96791478     0.36700
N3141       N  0.46556840  0.32771660  0.95801018    -0.89900
H3142       H  0.51168874  0.33136191  0.95827093     0.17800
H3143       H  0.47216737  0.40642250  0.99407264     0.17800
N3144       N  0.51824586  0.41077069  0.99002674    -0.88900
H3145       H  0.47076418  0.31445006  0.97926690     0.35100
H3146       H  0.46991224  0.32240721  0.92670790     0.40200
H3147       H  0.51384832  0.41763223  0.02027385     0.39900
H3148       H  0.51292033  0.42282108  0.96655537     0.34800
C3149       C  0.35141029  0.49812310  0.03487827    -0.27000
C3150       C  0.37093122  0.48374969  0.02675756    -0.15000
C3151       C  0.39245634  0.49463873  0.01567873     0.35600
C3152       C  0.39371798  0.51925941  0.01117650    -0.26400
C3153       C  0.37385231  0.53342114  0.01733872    -0.15700
C3154       C  0.35262756  0.52268683  0.03053141     0.36700
N3155       N  0.33225774  0.53677590  0.03928080    -0.89900
H3156       H  0.33488817  0.49016218  0.04412654     0.17800
H3157       H  0.41014403  0.52721329  0.00129461     0.17800
N3158       N  0.41315078  0.48088183  0.00908574    -0.88900
H3159       H  0.33609933  0.54735455  0.06601452     0.35100
H3160       H  0.31799039  0.52621694  0.04795372     0.40200
H3161       H  0.42597979  0.48669288  0.03077666     0.39900
H3162       H  0.41922719  0.48403598  0.97780303     0.34800
C3163       C  0.35176470  0.36414808  0.83777135    -0.27000
C3164       C  0.36962100  0.37572183  0.86112715    -0.15000
C3165       C  0.38970874  0.38360672  0.83859433     0.35600
C3166       C  0.39106075  0.38033910  0.79363617    -0.26400
C3167       C  0.37298532  0.36913922  0.77019375    -0.15700
C3168       C  0.35318917  0.36090598  0.79291594     0.36700
N3169       N  0.33406284  0.34989521  0.77061772    -0.89900
H3170       H  0.33625215  0.35781423  0.85428527     0.17800
H3171       H  0.40643734  0.38672997  0.77679000     0.17800
N3172       N  0.40882985  0.39465243  0.86122940    -0.88900
H3173       H  0.31888383  0.35965544  0.77657804     0.35100
H3174       H  0.33167006  0.33308234  0.78351555     0.40200
H3175       H  0.42193935  0.39994967  0.83975403     0.39900
H3176       H  0.41639338  0.38197532  0.88126275     0.34800
C3177       C  0.35329124  0.36526615  0.29096258    -0.27000
C3178       C  0.37464325  0.37117920  0.27134182    -0.15000
C3179       C  0.39297729  0.38029450  0.29720127     0.35600
C3180       C  0.38938342  0.38404525  0.34150048    -0.26400
C3181       C  0.36781896  0.37866140  0.36100505    -0.15700
C3182       C  0.34963852  0.36903169  0.33515637     0.36700
N3183       N  0.32713650  0.36360935  0.35320910    -0.89900
H3184       H  0.33889173  0.35857924  0.27160388     0.17800
H3185       H  0.40374203  0.39086257  0.36079026     0.17800
N3186       N  0.41540313  0.38555773  0.27875144    -0.88900
H3187       H  0.32367848  0.34577742  0.34775465     0.35100
H3188       H  0.31447146  0.37340980  0.33678489     0.40200
H3189       H  0.42806976  0.37569360  0.29504336     0.39900
H3190       H  0.41898671  0.40336625  0.28415963     0.34800
C3191       C  0.24087111  0.40403468  0.20019151    -0.27000
C3192       C  0.23104525  0.38274495  0.21470676    -0.15000
C3193       C  0.24386354  0.36179546  0.20808678     0.35600
C3194       C  0.26545175  0.36236504  0.18622411    -0.26400
C3195       C  0.27508290  0.38353265  0.17062729    -0.15700
C3196       C  0.26263159  0.40464069  0.17856149     0.36700
N3197       N  0.27208149  0.42685960  0.16541166    -0.89900
H3198       H  0.23152490  0.42038094  0.20524585     0.17800
H3199       H  0.27467797  0.34593038  0.18147368     0.17800
N3200       N  0.23533308  0.33981544  0.22435229    -0.88900
H3201       H  0.27396104  0.43743771  0.19283782     0.35100
H3202       H  0.25999408  0.43489130  0.14481096     0.40200
H3203       H  0.24785742  0.33305475  0.24561134     0.39900
H3204       H  0.23366429  0.32813630  0.19842416     0.34800
C3205       C  0.76667114  0.15359247  0.71637124    -0.27000
C3206       C  0.77321296  0.14844763  0.67362738    -0.15000
C3207       C  0.75600370  0.14441932  0.64222477     0.35600
C3208       C  0.73244975  0.14361177  0.65495909    -0.26400
C3209       C  0.72599769  0.14636536  0.69859751    -0.15700
C3210       C  0.74307824  0.15258143  0.72927558     0.36700
N3211       N  0.73668555  0.15621842  0.77362919    -0.89900
H3212       H  0.78019959  0.15655632  0.74037920     0.17800
H3213       H  0.71916860  0.13925338  0.63119723     0.17800
N3214       N  0.76268292  0.13896478  0.59862858    -0.88900
H3215       H  0.75144106  0.16070577  0.79196503     0.35100
H3216       H  0.73051612  0.14020792  0.78574314     0.40200
H3217       H  0.77074543  0.15391303  0.58573780     0.39900
H3218       H  0.74785149  0.13561525  0.57970230     0.34800
C3219       C  0.84759124  0.02044927  0.76786815    -0.27000
C3220       C  0.86908187  0.03118929  0.75724747    -0.15000
C3221       C  0.88934696  0.01700744  0.75489543     0.35600
C3222       C  0.88781792  0.99276503  0.76352330    -0.26400
C3223       C  0.86634345  0.98207009  0.77431990    -0.15700
C3224       C  0.84603156  0.99620301  0.77621857     0.36700
N3225       N  0.82360133  0.98595916  0.78533817    -0.89900
H3226       H  0.83174766  0.03090546  0.76946018     0.17800
H3227       H  0.90362172  0.98226829  0.76170765     0.17800
N3228       N  0.91142688  0.02692331  0.74242026    -0.88900
H3229       H  0.81243759  0.98945496  0.75935450     0.35100
H3230       H  0.81675560  0.99423331  0.81270217     0.40200
H3231       H  0.91721233  0.01810915  0.71478262     0.39900
H3232       H  0.92348651  0.02377601  0.76716509     0.34800
C3233       C  0.99787813  0.14976271  0.72551060    -0.27000
C3234       C  0.98310408  0.13050060  0.73413274    -0.15000
C3235       C  0.99327888  0.10870908  0.74600675     0.35600
C3236       C  0.01770055  0.10715451  0.75135245    -0.26400
C3237       C  0.03209849  0.12675735  0.74477303    -0.15700
C3238       C  0.02222547  0.14806231  0.73039972     0.36700
N3239       N  0.03702290  0.16801594  0.72161090    -0.89900
H3240       H  0.99042903  0.16639261  0.71546960     0.17800
H3241       H  0.02543361  0.09085862  0.76248385     0.17800
N3242       N  0.97892610  0.08824088  0.75273032    -0.88900
H3243       H  0.02704619  0.18240066  0.71151247     0.35100
H3244       H  0.04793199  0.16351693  0.69580103     0.40200
H3245       H  0.98909920  0.07396272  0.76266782     0.39900
H3246       H  0.97169170  0.08356251  0.72289930     0.34800
C3247       C  0.76483948  0.15105432  0.18720388    -0.27000
C3248       C  0.77403054  0.13011534  0.16968687    -0.15000
C3249       C  0.76017680  0.10946821  0.17160556     0.35600
C3250       C  0.73864834  0.10981892  0.19332645    -0.26400
C3251       C  0.72945571  0.13050634  0.21172613    -0.15700
C3252       C  0.74267795  0.15152837  0.20789204     0.36700
N3253       N  0.73381231  0.17320159  0.22523251    -0.89900
H3254       H  0.77530847  0.16696686  0.18612145     0.17800
H3255       H  0.72872970  0.09358556  0.19489766     0.17800
N3256       N  0.76801419  0.08799489  0.15166049    -0.88900
H3257       H  0.74541885  0.18704160  0.21895571     0.35100
H3258       H  0.73310380  0.17140617  0.25877231     0.40200
H3259       H  0.76870373  0.09088814  0.11837884     0.39900
H3260       H  0.75597816  0.07435410  0.15652365     0.34800
C3261       C  0.85418593  0.01969715  0.27428771    -0.27000
C3262       C  0.87484493  0.02949151  0.25765157    -0.15000
C3263       C  0.89400353  0.01462041  0.24880792     0.35600
C3264       C  0.89192089  0.99021505  0.25577823    -0.26400
C3265       C  0.87106578  0.98034317  0.27215927    -0.15700
C3266       C  0.85214517  0.99552817  0.28188357     0.36700
N3267       N  0.83047416  0.98653197  0.29850510    -0.89900
H3268       H  0.83928876  0.03090670  0.28116514     0.17800
H3269       H  0.90672112  0.97899653  0.24840007     0.17800
N3270       N  0.91528740  0.02407692  0.23142723    -0.88900
H3271       H  0.81705935  0.99101898  0.27704372     0.35100
H3272       H  0.82713293  0.99483426  0.32799517     0.40200
H3273       H  0.91847879  0.01587494  0.20179606     0.39900
H3274       H  0.92898928  0.01976633  0.25239149     0.34800
C3275       C  0.99488308  0.11408374  0.24826303    -0.27000
C3276       C  0.98434555  0.13571337  0.23805598    -0.15000
C3277       C  0.99885237  0.15562299  0.23201014     0.35600
C3278       C  0.02324560  0.15349688  0.23568744    -0.26400
C3279       C  0.03381218  0.13194640  0.24615633    -0.15700
C3280       C  0.01935637  0.11201675  0.25291606     0.36700
N3281       N  0.02937413  0.08995275  0.26595206    -0.89900
H3282       H  0.98399208  0.09864872  0.25278923     0.17800
H3283       H  0.03397804  0.16906970  0.23126645     0.17800
N3284       N  0.98895241  0.17824711  0.22310321    -0.88900
H3285       H  0.01640010  0.07700755  0.26856915     0.35100
H3286       H  0.03630061  0.09223787  0.29693982     0.40200
H3287       H  0.99580135  0.18422425  0.19381554     0.39900
H3288       H  0.99429829  0.18987815  0.24739093     0.34800
C3289       C  0.88082330  0.11177734  0.95806074    -0.27000
C3290       C  0.87166881  0.13082190  0.98145244    -0.15000
C3291       C  0.86583503  0.15166474  0.95920672     0.35600
C3292       C  0.86973129  0.15307899  0.91469378    -0.26400
C3293       C  0.87923200  0.13407621  0.89112501    -0.15700
C3294       C  0.88463928  0.11307391  0.91366004     0.36700
N3295       N  0.89379687  0.09257374  0.89278314    -0.89900
H3296       H  0.88536925  0.09563205  0.97462287     0.17800
H3297       H  0.86527134  0.16934282  0.89849960     0.17800
N3298       N  0.85664175  0.17192192  0.98090809    -0.88900
H3299       H  0.91006173  0.09670215  0.87925919     0.35100
H3300       H  0.88209444  0.08713723  0.86874591     0.40200
H3301       H  0.86835071  0.17698842  0.00521537     0.39900
H3302       H  0.84055709  0.16743910  0.99480912     0.34800
C3303       C  0.88071580  0.11024223  0.45727319    -0.27000
C3304       C  0.87490986  0.13079368  0.48034162    -0.15000
C3305       C  0.87365944  0.15233410  0.45771131     0.35600
C3306       C  0.87753012  0.15268324  0.41316130    -0.26400
C3307       C  0.88299844  0.13208317  0.38997234    -0.15700
C3308       C  0.88472692  0.11060591  0.41273530     0.36700
N3309       N  0.88976692  0.08874964  0.39162865    -0.89900
H3310       H  0.88211181  0.09358687  0.47403980     0.17800
H3311       H  0.87620778  0.16936891  0.39647270     0.17800
N3312       N  0.86934536  0.17427867  0.47902929    -0.88900
H3313       H  0.90638374  0.08982504  0.37757483     0.35100
H3314       H  0.87719964  0.08580295  0.36761525     0.40200
H3315       H  0.88192525  0.17665823  0.50323206     0.39900
H3316       H  0.85267807  0.17373413  0.49289990     0.34800
C3317       C  0.76973896  0.35668461  0.90428602    -0.27000
C3318       C  0.77563714  0.35818283  0.94829090    -0.15000
C3319       C  0.75786496  0.35809403  0.97931887     0.35600
C3320       C  0.73441393  0.35846316  0.96579558    -0.26400
C3321       C  0.72841251  0.35904142  0.92164909    -0.15700
C3322       C  0.74634260  0.35714136  0.89040640     0.36700
N3323       N  0.74177936  0.35694416  0.84476894    -0.89900
H3324       H  0.78353730  0.35656327  0.88028056     0.17800
H3325       H  0.72079860  0.35976030  0.99001462     0.17800
N3326       N  0.76354117  0.35934459  0.02428510    -0.88900
H3327       H  0.74918405  0.37218400  0.83168411     0.35100
H3328       H  0.72388805  0.35756617  0.83801081     0.40200
H3329       H  0.75583871  0.34488287  0.03955566     0.39900
H3330       H  0.75595488  0.37459030  0.03695034     0.34800
C3331       C  0.89248053  0.48362127  0.89705449    -0.27000
C3332       C  0.87904252  0.46845708  0.87126976    -0.15000
C3333       C  0.86347982  0.47803560  0.84046541     0.35600
C3334       C  0.86098566  0.50247615  0.83766259    -0.26400
C3335       C  0.87383842  0.51792592  0.86428850    -0.15700
C3336       C  0.88995702  0.50821194  0.89431289     0.36700
N3337       N  0.90320893  0.52310459  0.92288016    -0.89900
H3338       H  0.90408362  0.47618682  0.92114783     0.17800
H3339       H  0.84889937  0.50936833  0.81386327     0.17800
N3340       N  0.84990183  0.46357633  0.81151677    -0.88900
H3341       H  0.91470512  0.51319372  0.94180566     0.35100
H3342       H  0.89135036  0.53096809  0.94416203     0.40200
H3343       H  0.85433920  0.44584792  0.81423167     0.39900
H3344       H  0.85442246  0.46834035  0.78002742     0.34800
C3345       C  0.00169324  0.34408243  0.90943198    -0.27000
C3346       C  0.98805601  0.36447705  0.90457987    -0.15000
C3347       C  0.99952031  0.38623911  0.89753422     0.35600
C3348       C  0.02403801  0.38683668  0.89290413    -0.26400
C3349       C  0.03753036  0.36625437  0.89546393    -0.15700
C3350       C  0.02623815  0.34471591  0.90508228     0.36700
N3351       N  0.03967903  0.32352489  0.91013713    -0.89900
H3352       H  0.99313562  0.32743979  0.91604174     0.17800
H3353       H  0.03255985  0.40344866  0.88590341     0.17800
N3354       N  0.98633100  0.40771841  0.89532426    -0.88900
H3355       H  0.02872516  0.30922102  0.91685590     0.35100
H3356       H  0.05051903  0.32577022  0.93707297     0.40200
H3357       H  0.99734874  0.42205290  0.88919555     0.39900
H3358       H  0.97894540  0.41061718  0.92573515     0.34800
C3359       C  0.90714704  0.26129385  0.05670946    -0.27000
C3360       C  0.88575558  0.27210149  0.04612401    -0.15000
C3361       C  0.86466091  0.25991971  0.05526923     0.35600
C3362       C  0.86538976  0.23774733  0.07492198    -0.26400
C3363       C  0.88674480  0.22690734  0.08566297    -0.15700
C3364       C  0.90793282  0.23883565  0.07587748     0.36700
N3365       N  0.93021462  0.22808773  0.08470904    -0.89900
H3366       H  0.92344709  0.27035326  0.04980782     0.17800
H3367       H  0.84890949  0.22901972  0.08189023     0.17800
N3368       N  0.84232389  0.26967093  0.04406358    -0.88900
H3369       H  0.94398472  0.23939418  0.07648036     0.35100
H3370       H  0.93169868  0.21339731  0.06455197     0.40200
H3371       H  0.83233349  0.27110405  0.07221716     0.39900
H3372       H  0.83379776  0.25792005  0.02328460     0.34800
C3373       C  0.76736306  0.34659228  0.42555629    -0.27000
C3374       C  0.77407662  0.35774092  0.46431565    -0.15000
C3375       C  0.75703847  0.36958453  0.48891938     0.35600
C3376       C  0.73433642  0.37173657  0.47251251    -0.26400
C3377       C  0.72793961  0.36238513  0.43201272    -0.15700
C3378       C  0.74433358  0.34871772  0.40914850     0.36700
N3379       N  0.73800524  0.33814050  0.36863386    -0.89900
H3380       H  0.78058814  0.33774724  0.40643081     0.17800
H3381       H  0.72165725  0.38142851  0.49144235     0.17800
N3382       N  0.76242920  0.38068123  0.52951682    -0.88900
H3383       H  0.75212483  0.32865836  0.35603611     0.35100
H3384       H  0.73452480  0.35171613  0.34685571     0.40200
H3385       H  0.77968410  0.37734298  0.53895724     0.39900
H3386       H  0.75179488  0.37289146  0.55297946     0.34800
C3387       C  0.89207886  0.48170083  0.36569145    -0.27000
C3388       C  0.87115866  0.46864321  0.36864430    -0.15000
C3389       C  0.84954583  0.48059191  0.36387875     0.35600
C3390       C  0.84925392  0.50503912  0.35820460    -0.26400
C3391       C  0.87006695  0.51821255  0.35717987    -0.15700
C3392       C  0.89170770  0.50628794  0.36020471     0.36700
N3393       N  0.91336042  0.51895380  0.35682420    -0.89900
H3394       H  0.90884801  0.47294018  0.36883944     0.17800
H3395       H  0.83248135  0.51382756  0.35523315     0.17800
N3396       N  0.82771546  0.46804894  0.36471891    -0.88900
H3397       H  0.92265153  0.51216441  0.33055355     0.35100
H3398       H  0.92316318  0.51575422  0.38472347     0.40200
H3399       H  0.81891118  0.47121239  0.33570419     0.39900
H3400       H  0.81755242  0.47484039  0.38987188     0.34800
C3401       C  0.99886626  0.34648153  0.39934977    -0.27000
C3402       C  0.98569686  0.36714330  0.39354191    -0.15000
C3403       C  0.99795722  0.38869005  0.38807066     0.35600
C3404       C  0.02253437  0.38896956  0.38803479    -0.26400
C3405       C  0.03556299  0.36824840  0.39318861    -0.15700
C3406       C  0.02348508  0.34680017  0.39989055     0.36700
N3407       N  0.03622954  0.32537401  0.40734470    -0.89900
H3408       H  0.98988312  0.32986903  0.40408675     0.17800
H3409       H  0.03148277  0.40551384  0.38232155     0.17800
N3410       N  0.98614533  0.41065853  0.38279343    -0.88900
H3411       H  0.02475293  0.31118198  0.41144969     0.35100
H3412       H  0.04534259  0.32734290  0.43642796     0.40200
H3413       H  0.97503002  0.41333138  0.40914092     0.39900
H3414       H  0.97634664  0.40988741  0.35435641     0.34800
C3415       C  0.89815011  0.38057926  0.67071276    -0.27000
C3416       C  0.87913218  0.36936581  0.64981765    -0.15000
C3417       C  0.86306738  0.35638562  0.67500085     0.35600
C3418       C  0.86677013  0.35445350  0.71965018    -0.26400
C3419       C  0.88567154  0.36583345  0.74058383    -0.15700
C3420       C  0.90146413  0.37918353  0.71558295     0.36700
N3421       N  0.92075452  0.39138098  0.73556271    -0.89900
H3422       H  0.91074989  0.39051323  0.65197558     0.17800
H3423       H  0.85418191  0.34449797  0.73838814     0.17800
N3424       N  0.84281634  0.34552854  0.65561075    -0.88900
H3425       H  0.93020315  0.40106820  0.71277665     0.35100
H3426       H  0.93223320  0.37870785  0.74775077     0.40200
H3427       H  0.83191131  0.35901941  0.64463004     0.39900
H3428       H  0.83312686  0.33617860  0.67852918     0.34800
C3429       C  0.87009222  0.34883992  0.21636809    -0.27000
C3430       C  0.87904173  0.36810957  0.23982887    -0.15000
C3431       C  0.88434456  0.38919696  0.21783184     0.35600
C3432       C  0.88128686  0.39019466  0.17298089    -0.26400
C3433       C  0.87276194  0.37078504  0.14946971    -0.15700
C3434       C  0.86703356  0.34985404  0.17149297     0.36700
N3435       N  0.85885891  0.32947389  0.14829870    -0.89900
H3436       H  0.86585733  0.33263991  0.23302138     0.17800
H3437       H  0.88561440  0.40633627  0.15619729     0.17800
N3438       N  0.89245610  0.40963373  0.24092516    -0.88900
H3439       H  0.85489888  0.31576586  0.16954403     0.35100
H3440       H  0.87265590  0.32353109  0.12896458     0.40200
H3441       H  0.87871600  0.41537779  0.26059443     0.39900
H3442       H  0.89611924  0.42342205  0.21967321     0.34800
C3443       C  0.90907207  0.26433705  0.56342603    -0.27000
C3444       C  0.88947486  0.27132857  0.53925989    -0.15000
C3445       C  0.87065005  0.25532958  0.53392828     0.35600
C3446       C  0.87137492  0.23342865  0.55412027    -0.26400
C3447       C  0.89052193  0.22654739  0.57990221    -0.15700
C3448       C  0.90992758  0.24211334  0.58361765     0.36700
N3449       N  0.93029551  0.23562177  0.60816691    -0.89900
H3450       H  0.92366022  0.27643243  0.56709235     0.17800
H3451       H  0.85653303  0.22174213  0.54956989     0.17800
N3452       N  0.85079826  0.26043186  0.50712055    -0.88900
H3453       H  0.94229712  0.24953925  0.60950698     0.35100
H3454       H  0.93866792  0.22206101  0.59139575     0.40200
H3455       H  0.85677087  0.26514830  0.47643867     0.39900
H3456       H  0.84141269  0.27439257  0.52048145     0.34800
loop_ 
_geom_bond_atom_site_label_1 
_geom_bond_atom_site_label_2 
_geom_bond_distance 
_geom_bond_site_symmetry_2 
_ccdc_geom_bond_type 
Zr1           O2   2.440       .  S
Zr1           O3   2.451       .  S
Zr1           O4   2.473       .  S
Zr1           O7   2.461       .  S
Zr1           O9   2.393       .  S
Zr1          O10   2.384       .  S
Zr1          O11   2.416       .  S
Zr1          O12   2.400       .  S
O2           H58   0.990       .  S
O2           H66   0.990       .  S
O3           C23   1.286       .  A
O4           C25   1.290       .  A
O5          Zr15   2.411       .  S
O5           C24   1.281       .  A
O6          Zr14   2.421       .  S
O6           C25   1.284       .  A
O7           C24   1.290       .  A
O8          Zr16   2.393       .  S
O8           C23   1.277       .  A
O9          Zr14   2.403       .  S
O9          Zr16   2.382       .  S
O10         Zr15   2.387       .  S
O10         Zr16   2.383       .  S
O10          H45   0.965       .  S
O11         Zr14   2.413       .  S
O11         Zr31   2.381       .  S
O11          H48   0.964       .  S
O12         Zr15   2.381       .  S
O12         Zr31   2.377       .  S
Zr13         O38   2.443       .  S
Zr13         O32   2.456       .  S
Zr13         O40   2.482       .  S
Zr13         O28   2.428       .  S
Zr13         O19   2.381       .  S
Zr13         O20   2.419       .  S
Zr13         O21   2.379       .  S
Zr13         O22   2.388       .  S
Zr14         O33   2.437       .  S
Zr14         O26   2.436       .  S
Zr14         O27   2.451       .  S
Zr14         O20   2.389       .  S
Zr14         O21   2.387       .  S
Zr15         O17   2.436       .  S
Zr15         O39   2.439       .  S
Zr15         O41   2.408       .  S
Zr15         O19   2.372       .  S
Zr15         O22   2.392       .  S
Zr16         O42   2.433       .  S
Zr16         O43   2.434       .  S
Zr16         O18   2.436       .  S
Zr16         O19   2.370       .  S
Zr16         O20   2.387       .  S
O17          H54   0.990       .  S
O18          H49   0.990       .  S
O18          H63   0.990       .  S
O20          H46   0.965       .  S
O21         Zr31   2.380       .  S
O22         Zr31   2.390       .  S
O22          H47   0.966       .  S
C23        C3430   1.482       .  S
C24        C3388   1.491       .  S
C25        C3402   1.494       .  S
O26          H62   0.990       .  S
O27          C29   1.288       .  A
O28          C29   1.283       .  A
C29        C3444   1.483       .  S
O30         Zr31   2.439       .  S
O30          H59   0.990       .  S
Zr31         O34   2.438       .  S
Zr31         O35   2.439       .  S
Zr31         O36   2.391       .  S
O32          C37   1.287       .  A
O33          H50   0.990       .  S
O33          H65   0.990       .  S
O34          H51   0.990       .  S
O35          H55   0.990       .  S
O35          H64   0.990       .  S
O36          C37   1.277       .  A
C37        C3416   1.493       .  S
O38          H57   0.990       .  S
O38          H61   0.990       .  S
O39          H53   0.990       .  S
O39          H60   0.990       .  S
O40          C44   1.291       .  A
O41          C44   1.280       .  A
O42          H52   0.990       .  S
O43          H56   0.991       .  S
C44        C3374   1.470       .  S
Zr67         O68   2.441       .  S
Zr67         O69   2.470       .  S
Zr67         O70   2.461       .  S
Zr67         O73   2.458       .  S
Zr67         O75   2.390       .  S
Zr67         O76   2.382       .  S
Zr67         O77   2.418       .  S
Zr67         O78   2.400       .  S
O68         H124   0.990       .  S
O68         H132   0.990       .  S
O69          C89   1.290       .  A
O70          C91   1.289       .  A
O71         Zr81   2.416       .  S
O71          C90   1.280       .  A
O72         Zr80   2.425       .  S
O72          C91   1.284       .  A
O73          C90   1.288       .  A
O74         Zr82   2.384       .  S
O74          C89   1.275       .  A
O75         Zr80   2.403       .  S
O75         Zr82   2.379       .  S
O76         Zr81   2.389       .  S
O76         Zr82   2.389       .  S
O76         H111   0.965       .  S
O77         Zr80   2.411       .  S
O77         Zr97   2.386   1_556  S
O77         H114   0.964       .  S
O78         Zr81   2.379       .  S
O78         Zr97   2.380   1_556  S
Zr79        O104   2.442       .  S
Zr79         O98   2.445       .  S
Zr79        O106   2.481   1_554  S
Zr79         O94   2.430       .  S
Zr79         O85   2.378   1_554  S
Zr79         O86   2.420   1_554  S
Zr79         O87   2.382       .  S
Zr79         O88   2.391       .  S
Zr80         O99   2.437   1_556  S
Zr80         O92   2.434       .  S
Zr80         O93   2.451   1_556  S
Zr80         O86   2.393       .  S
Zr80         O87   2.389   1_556  S
Zr81         O83   2.436       .  S
Zr81        O105   2.440       .  S
Zr81        O107   2.403       .  S
Zr81         O85   2.375       .  S
Zr81         O88   2.396   1_556  S
Zr82        O108   2.434       .  S
Zr82        O109   2.436       .  S
Zr82         O84   2.436       .  S
Zr82         O85   2.364       .  S
Zr82         O86   2.389       .  S
O83         H120   0.990       .  S
O84         H115   0.990       .  S
O84         H129   0.990       .  S
O86         H112   0.965       .  S
O87         Zr97   2.380       .  S
O88         Zr97   2.390       .  S
O88         H113   0.966       .  S
C89        C3419   1.492       .  S
C90        C3332   1.473       .  S
C91        C3346   1.489       .  S
O92         H128   0.990       .  S
O93          C95   1.289       .  A
O94          C95   1.283       .  A
C95        C3360   1.494       .  S
O96         Zr97   2.440       .  S
O96         H125   0.991       .  S
Zr97        O100   2.440       .  S
Zr97        O101   2.440       .  S
Zr97        O102   2.386       .  S
O98         C103   1.285       .  A
O99         H116   0.990       .  S
O99         H131   0.990       .  S
O100        H117   0.990       .  S
O101        H121   0.990       .  S
O101        H130   0.989       .  S
O102        C103   1.275       .  A
C103       C3433   1.478       .  S
O104        H123   0.990       .  S
O104        H127   0.990       .  S
O105        H119   0.990       .  S
O105        H126   0.990       .  S
O106        C110   1.291       .  A
O107        C110   1.279       .  A
O108        H118   0.990       .  S
O109        H122   0.990       .  S
C110       C3318   1.468       .  S
Zr133       O134   2.442       .  S
Zr133       O135   2.459       .  S
Zr133       O136   2.454       .  S
Zr133       O139   2.452       .  S
Zr133       O141   2.390       .  S
Zr133       O142   2.387       .  S
Zr133       O143   2.416       .  S
Zr133       O144   2.403       .  S
O134        H190   0.990       .  S
O134        H198   0.991       .  S
O135        C155   1.288       .  A
O136        C157   1.287       .  A
O137       Zr147   2.413       .  S
O137        C156   1.282       .  A
O138       Zr146   2.419       .  S
O138        C157   1.281       .  A
O139        C156   1.287       .  A
O140       Zr148   2.391       .  S
O140        C155   1.277       .  A
O141       Zr146   2.399       .  S
O141       Zr148   2.380       .  S
O142       Zr147   2.386       .  S
O142       Zr148   2.391       .  S
O142        H177   0.966       .  S
O143       Zr146   2.404       .  S
O143       Zr163   2.387       .  S
O143        H180   0.965       .  S
O144       Zr147   2.383       .  S
O144       Zr163   2.382       .  S
Zr145       O170   2.439       .  S
Zr145       O164   2.445       .  S
Zr145       O172   2.481       .  S
Zr145       O160   2.439       .  S
Zr145       O151   2.391       .  S
Zr145       O152   2.415       .  S
Zr145       O153   2.388       .  S
Zr145       O154   2.393       .  S
Zr146       O165   2.438       .  S
Zr146       O158   2.436       .  S
Zr146       O159   2.439       .  S
Zr146       O152   2.395       .  S
Zr146       O153   2.386       .  S
Zr147       O149   2.436       .  S
Zr147       O171   2.436       .  S
Zr147       O173   2.409       .  S
Zr147       O151   2.384       .  S
Zr147       O154   2.393       .  S
Zr148       O174   2.436       .  S
Zr148       O175   2.436       .  S
Zr148       O150   2.436       .  S
Zr148       O151   2.376       .  S
Zr148       O152   2.387       .  S
O149        H186   0.990       .  S
O150        H181   0.990       .  S
O150        H195   0.990       .  S
O152        H178   0.965       .  S
O153       Zr163   2.377       .  S
O154       Zr163   2.383       .  S
O154        H179   0.966       .  S
C155       C3307   1.486       .  S
C156       C3262   1.481       .  S
C157       C3276   1.489       .  S
O158        H194   0.990       .  S
O159        C161   1.286       .  A
O160        C161   1.287       .  A
C161       C3363   1.495       .  S
O162       Zr163   2.440       .  S
O162        H191   0.990       .  S
Zr163       O166   2.438       .  S
Zr163       O167   2.441       .  S
Zr163       O168   2.395       .  S
O164        C169   1.285       .  A
O165        H182   0.990       .  S
O165        H197   0.990       .  S
O166        H183   0.990       .  S
O167        H187   0.990       .  S
O167        H196   0.990       .  S
O168        C169   1.278       .  A
C169       C3290   1.479   1_554  S
O170        H189   0.990       .  S
O170        H193   0.990       .  S
O171        H185   0.990       .  S
O171        H192   0.990       .  S
O172        C176   1.289       .  A
O173        C176   1.275       .  A
O174        H184   0.990       .  S
O175        H188   0.990       .  S
C176       C3248   1.496       .  S
Zr199       O200   2.440       .  S
Zr199       O201   2.458       .  S
Zr199       O202   2.450       .  S
Zr199       O205   2.465       .  S
Zr199       O207   2.393       .  S
Zr199       O208   2.378       .  S
Zr199       O209   2.419       .  S
Zr199       O210   2.394       .  S
O200        H256   0.990       .  S
O200        H264   0.990       .  S
O201        C221   1.286       .  A
O202        C223   1.287       .  A
O203       Zr213   2.428       .  S
O203        C222   1.284       .  A
O204       Zr212   2.416       .  S
O204        C223   1.283       .  A
O205        C222   1.290       .  A
O206       Zr214   2.398       .  S
O206        C221   1.278       .  A
O207       Zr212   2.404       .  S
O207       Zr214   2.375       .  S
O208       Zr213   2.389       .  S
O208       Zr214   2.396       .  S
O208        H243   0.965       .  S
O209       Zr212   2.413       .  S
O209       Zr229   2.385       .  S
O209        H246   0.964       .  S
O210       Zr213   2.377       .  S
O210       Zr229   2.382       .  S
Zr211       O236   2.440       .  S
Zr211       O230   2.463       .  S
Zr211       O238   2.464       .  S
Zr211       O226   2.428       .  S
Zr211       O217   2.382       .  S
Zr211       O218   2.418       .  S
Zr211       O219   2.374       .  S
Zr211       O220   2.390       .  S
Zr212       O231   2.438       .  S
Zr212       O224   2.435       .  S
Zr212       O225   2.447       .  S
Zr212       O218   2.390       .  S
Zr212       O219   2.388       .  S
Zr213       O215   2.436       .  S
Zr213       O237   2.441       .  S
Zr213       O239   2.400       .  S
Zr213       O217   2.375       .  S
Zr213       O220   2.402       .  S
Zr214       O240   2.435       .  S
Zr214       O241   2.436       .  S
Zr214       O216   2.438       .  S
Zr214       O217   2.371       .  S
Zr214       O218   2.394       .  S
O215        H252   0.990       .  S
O216        H247   0.990       .  S
O216        H261   0.990       .  S
O218        H244   0.965       .  S
O219       Zr229   2.378       .  S
O220       Zr229   2.391       .  S
O220        H245   0.966       .  S
C221       C3293   1.492       .  S
C222       C3220   1.493       .  S
C223       C3234   1.485       .  S
O224        H260   0.990       .  S
O225        C227   1.287       .  A
O226        C227   1.284       .  A
C227       C3447   1.498       .  S
O228       Zr229   2.439       .  S
O228        H257   0.991       .  S
Zr229       O232   2.438       .  S
Zr229       O233   2.439       .  S
Zr229       O234   2.391       .  S
O230        C235   1.289       .  A
O231        H248   0.990       .  S
O231        H263   0.990       .  S
O232        H249   0.990       .  S
O233        H253   0.990       .  S
O233        H262   0.990       .  S
O234        C235   1.276       .  A
C235       C3304   1.486       .  S
O236        H255   0.991       .  S
O236        H259   0.989       .  S
O237        H251   0.990       .  S
O237        H258   0.990       .  S
O238        C242   1.289       .  A
O239        C242   1.279       .  A
O240        H250   0.990       .  S
O241        H254   0.990       .  S
C242       C3206   1.461       .  S
Zr265       O266   2.440       .  S
Zr265       O267   2.452       .  S
Zr265       O268   2.463       .  S
Zr265       O271   2.440       .  S
Zr265       O273   2.389       .  S
Zr265       O274   2.386       .  S
Zr265       O275   2.430       .  S
Zr265       O276   2.413       .  S
O266        H322   0.990       .  S
O266        H330   0.990       .  S
O267        C287   1.287       .  A
O268        C289   1.286       .  A
O269       Zr279   2.447       .  S
O269        C288   1.287       .  A
O270       Zr278   2.408       .  S
O270        C289   1.273       .  A
O271        C288   1.287       .  A
O272       Zr280   2.402       .  S
O272        C287   1.278       .  A
O273       Zr278   2.401       .  S
O273       Zr280   2.383       .  S
O274       Zr279   2.388       .  S
O274       Zr280   2.376       .  S
O274        H309   0.966       .  S
O275       Zr278   2.401       .  S
O275       Zr295   2.381       .  S
O275        H312   0.964       .  S
O276       Zr279   2.388       .  S
O276       Zr295   2.397       .  S
Zr277       O302   2.441   1_554  S
Zr277       O296   2.459   1_554  S
Zr277       O304   2.450       .  S
Zr277       O292   2.452   1_554  S
Zr277       O283   2.403       .  S
Zr277       O284   2.419       .  S
Zr277       O285   2.376   1_554  S
Zr277       O286   2.395       .  S
Zr278       O297   2.434       .  S
Zr278       O290   2.435       .  S
Zr278       O291   2.413       .  S
Zr278       O284   2.394       .  S
Zr278       O285   2.390   1_554  S
Zr279       O281   2.435       .  S
Zr279       O303   2.439       .  S
Zr279       O305   2.431       .  S
Zr279       O283   2.390       .  S
Zr279       O286   2.404       .  S
Zr280       O306   2.436       .  S
Zr280       O307   2.436       .  S
Zr280       O282   2.438       .  S
Zr280       O283   2.383       .  S
Zr280       O284   2.382       .  S
O281        H318   0.990       .  S
O282        H313   0.990       .  S
O282        H327   0.990       .  S
O284        H310   0.964       .  S
O285       Zr295   2.386   1_556  S
O286       Zr295   2.376       .  S
O286        H311   0.966   1_554  S
C287       C3178   1.484       .  S
C288       C3195   1.503       .  S
C289       C3122   1.493       .  S
O290        H326   0.990       .  S
O291        C293   1.280   1_554  A
O292        C293   1.287       .  A
C293       C3139   1.480       .  S
O294       Zr295   2.438       .  S
O294        H323   0.990       .  S
Zr295       O298   2.436   1_554  S
Zr295       O299   2.438   1_554  S
Zr295       O300   2.405   1_554  S
O296        C301   1.288       .  A
O297        H314   0.990   1_554  S
O297        H329   0.990       .  S
O298        H315   0.990       .  S
O299        H319   0.990       .  S
O299        H328   0.990       .  S
O300        C301   1.279       .  A
C301       C3164   1.494       .  S
O302        H321   0.991       .  S
O302        H325   0.990       .  S
O303        H317   0.990       .  S
O303        H324   0.990       .  S
O304        C308   1.288       .  A
O305        C308   1.287       .  A
O306        H316   0.990       .  S
O307        H320   0.990       .  S
C308       C3150   1.494       .  S
Zr331       O332   2.443       .  S
Zr331       O333   2.465       .  S
Zr331       O334   2.496       .  S
Zr331       O337   2.441       .  S
Zr331       O339   2.382       .  S
Zr331       O340   2.394       .  S
Zr331       O341   2.413       .  S
Zr331       O342   2.417       .  S
O332        H388   0.990       .  S
O332        H396   0.990       .  S
O333        C353   1.289       .  A
O334        C355   1.294       .  A
O335       Zr345   2.425       .  S
O335        C354   1.282       .  A
O336       Zr344   2.395       .  S
O336        C355   1.277       .  A
O337        C354   1.287       .  A
O338       Zr346   2.396       .  S
O338        C353   1.278       .  A
O339       Zr344   2.398       .  S
O339       Zr346   2.386       .  S
O340       Zr345   2.388       .  S
O340       Zr346   2.371       .  S
O340        H375   0.965       .  S
O341       Zr344   2.404       .  S
O341       Zr361   2.380       .  S
O341        H378   0.963       .  S
O342       Zr345   2.391       .  S
O342       Zr361   2.385       .  S
Zr343       O368   2.440       .  S
Zr343       O362   2.465       .  S
Zr343       O370   2.447       .  S
Zr343       O358   2.462       .  S
Zr343       O349   2.413       .  S
Zr343       O350   2.411       .  S
Zr343       O351   2.370       .  S
Zr343       O352   2.394       .  S
Zr344       O363   2.438       .  S
Zr344       O356   2.435       .  S
Zr344       O357   2.412       .  S
Zr344       O350   2.392       .  S
Zr344       O351   2.384       .  S
Zr345       O347   2.435       .  S
Zr345       O369   2.441       .  S
Zr345       O371   2.426       .  S
Zr345       O349   2.390       .  S
Zr345       O352   2.394       .  S
Zr346       O372   2.434       .  S
Zr346       O373   2.436       .  S
Zr346       O348   2.439       .  S
Zr346       O349   2.392       .  S
Zr346       O350   2.369       .  S
O347        H384   0.990       .  S
O348        H379   0.990       .  S
O348        H393   0.990       .  S
O350        H376   0.963       .  S
O351       Zr361   2.386       .  S
O352       Zr361   2.381       .  S
O352        H377   0.965       .  S
C353       C3167   1.493       .  S
C354       C3108   1.479       .  S
C355       C3069   1.481       .  S
O356        H392   0.990       .  S
O357        C359   1.282       .  A
O358        C359   1.289       .  A
C359       C3080   1.485       .  S
O360       Zr361   2.441       .  S
O360        H389   0.990       .  S
Zr361       O364   2.437       .  S
Zr361       O365   2.443       .  S
Zr361       O366   2.389       .  S
O362        C367   1.290       .  A
O363        H380   0.990       .  S
O363        H395   0.990       .  S
O364        H381   0.989       .  S
O365        H385   0.990       .  S
O365        H394   0.989       .  S
O366        C367   1.276       .  A
C367       C3181   1.488       .  S
O368        H387   0.990       .  S
O368        H391   0.990       .  S
O369        H383   0.990       .  S
O369        H390   0.990       .  S
O370        C374   1.287       .  A
O371        C374   1.283       .  A
O372        H382   0.990       .  S
O373        H386   0.990       .  S
C374       C3094   1.496       .  S
Zr397       O398   2.441       .  S
Zr397       O399   2.465       .  S
Zr397       O400   2.489       .  S
Zr397       O403   2.443       .  S
Zr397       O405   2.385       .  S
Zr397       O406   2.394       .  S
Zr397       O407   2.426       .  S
Zr397       O408   2.420       .  S
O398        H454   0.990       .  S
O398        H462   0.990       .  S
O399        C419   1.289       .  A
O400        C421   1.290       .  A
O401       Zr411   2.449       .  S
O401        C420   1.288       .  A
O402       Zr410   2.408       .  S
O402        C421   1.273       .  A
O403        C420   1.287       .  A
O404       Zr412   2.393       .  S
O404        C419   1.277       .  A
O405       Zr410   2.402       .  S
O405       Zr412   2.388       .  S
O406       Zr411   2.391       .  S
O406       Zr412   2.377       .  S
O406        H441   0.966       .  S
O407       Zr410   2.393       .  S
O407       Zr427   2.376       .  S
O407        H444   0.964       .  S
O408       Zr411   2.391       .  S
O408       Zr427   2.394       .  S
Zr409       O434   2.441       .  S
Zr409       O428   2.457       .  S
Zr409       O436   2.451       .  S
Zr409       O424   2.467       .  S
Zr409       O415   2.408       .  S
Zr409       O416   2.415       .  S
Zr409       O417   2.376       .  S
Zr409       O418   2.395       .  S
Zr410       O429   2.436       .  S
Zr410       O422   2.434       .  S
Zr410       O423   2.408       .  S
Zr410       O416   2.398       .  S
Zr410       O417   2.388       .  S
Zr411       O413   2.435       .  S
Zr411       O435   2.437       .  S
Zr411       O437   2.428       .  S
Zr411       O415   2.396       .  S
Zr411       O418   2.396       .  S
Zr412       O438   2.435       .  S
Zr412       O439   2.436       .  S
Zr412       O414   2.437       .  S
Zr412       O415   2.383       .  S
Zr412       O416   2.374       .  S
O413        H450   0.990       .  S
O414        H445   0.990       .  S
O414        H459   0.990       .  S
O416        H442   0.964       .  S
O417       Zr427   2.389       .  S
O418       Zr427   2.374       .  S
O418        H443   0.965       .  S
C419       C3055   1.490       .  S
C420       C3192   1.498       .  S
C421       C3013   1.498       .  S
O422        H458   0.990       .  S
O423        C425   1.279       .  A
O424        C425   1.290       .  A
C425       C3405   1.485       .  S
O426       Zr427   2.437       .  S
O426        H455   0.990       .  S
Zr427       O430   2.439       .  S
Zr427       O431   2.443       .  S
Zr427       O432   2.392       .  S
O428        C433   1.287       .  A
O429        H446   0.990       .  S
O429        H461   0.990       .  S
O430        H447   0.990       .  S
O431        H451   0.990       .  S
O431        H460   0.990       .  S
O432        C433   1.276       .  A
C433       C3038   1.484       .  S
O434        H453   0.991       .  S
O434        H457   0.990       .  S
O435        H449   0.990       .  S
O435        H456   0.990       .  S
O436        C440   1.289       .  A
O437        C440   1.285       .  A
O438        H448   0.990       .  S
O439        H452   0.990       .  S
C440       C3024   1.495       .  S
Zr463       O464   2.445       .  S
Zr463       O465   2.457       .  S
Zr463       O466   2.455       .  S
Zr463       O469   2.405       .  S
Zr463       O471   2.379       .  S
Zr463       O472   2.383       .  S
Zr463       O473   2.405       .  S
Zr463       O474   2.413       .  S
O464        H520   0.990       .  S
O464        H528   0.991       .  S
O465        C485   1.287       .  A
O466        C487   1.284       .  A
O467       Zr477   2.449       .  S
O467        C486   1.287       .  A
O468       Zr476   2.413       .  S
O468        C487   1.281       .  A
O469        C486   1.280       .  A
O470       Zr478   2.393       .  S
O470        C485   1.277       .  A
O471       Zr476   2.399       .  S
O471       Zr478   2.389       .  S
O472       Zr477   2.386       .  S
O472       Zr478   2.371       .  S
O472        H507   0.966       .  S
O473       Zr476   2.398       .  S
O473       Zr493   2.372       .  S
O473        H510   0.963       .  S
O474       Zr477   2.390       .  S
O474       Zr493   2.393       .  S
Zr475       O500   2.440       .  S
Zr475       O494   2.456       .  S
Zr475       O502   2.451       .  S
Zr475       O490   2.458       .  S
Zr475       O481   2.407       .  S
Zr475       O482   2.413       .  S
Zr475       O483   2.374       .  S
Zr475       O484   2.392       .  S
Zr476       O495   2.436       .  S
Zr476       O488   2.436       .  S
Zr476       O489   2.422       .  S
Zr476       O482   2.396       .  S
Zr476       O483   2.394       .  S
Zr477       O479   2.437       .  S
Zr477       O501   2.438       .  S
Zr477       O503   2.422       .  S
Zr477       O481   2.394       .  S
Zr477       O484   2.401       .  S
Zr478       O504   2.435       .  S
Zr478       O505   2.435       .  S
Zr478       O480   2.436       .  S
Zr478       O481   2.386       .  S
Zr478       O482   2.374       .  S
O479        H516   0.990       .  S
O480        H511   0.990       .  S
O480        H525   0.990       .  S
O482        H508   0.964       .  S
O483       Zr493   2.386       .  S
O484       Zr493   2.371       .  S
O484        H509   0.966       .  S
C485       C3041   1.482       .  S
C486       C3111   1.491       .  S
C487       C2982   1.463       .  S
O488        H524   0.990       .  S
O489        C491   1.282       .  A
O490        C491   1.288       .  A
C491       C3349   1.487       .  S
O492       Zr493   2.437       .  S
O492        H521   0.990       .  S
Zr493       O496   2.439       .  S
Zr493       O497   2.439       .  S
Zr493       O498   2.396       .  S
O494        C499   1.287       .  A
O495        H512   0.990       .  S
O495        H527   0.990       .  S
O496        H513   0.990       .  S
O497        H517   0.990       .  S
O497        H526   0.990       .  S
O498        C499   1.278       .  A
C499       C3052   1.495   1_556  S
O500        H519   0.991       .  S
O500        H523   0.990       .  S
O501        H515   0.990       .  S
O501        H522   0.990       .  S
O502        C506   1.288       .  A
O503        C506   1.285       .  A
O504        H514   0.990       .  S
O505        H518   0.990       .  S
C506       C2996   1.495       .  S
Zr529       O530   2.443       .  S
Zr529       O531   2.468       .  S
Zr529       O532   2.470       .  S
Zr529       O535   2.463       .  S
Zr529       O537   2.392       .  S
Zr529       O538   2.388       .  S
Zr529       O539   2.419       .  S
Zr529       O540   2.401       .  S
O530        H586   0.990       .  S
O530        H594   0.991       .  S
O531        C551   1.290       .  A
O532        C553   1.290       .  A
O533       Zr543   2.427       .  S
O533        C552   1.284       .  A
O534       Zr542   2.406       .  S
O534        C553   1.280       .  A
O535        C552   1.289       .  A
O536       Zr544   2.388       .  S
O536        C551   1.275       .  A
O537       Zr542   2.404       .  S
O537       Zr544   2.376       .  S
O538       Zr543   2.395       .  S
O538       Zr544   2.393       .  S
O538        H573   0.965       .  S
O539       Zr542   2.411       .  S
O539       Zr559   2.387       .  S
O539        H576   0.964       .  S
O540       Zr543   2.379       .  S
O540       Zr559   2.379       .  S
Zr541       O566   2.442       .  S
Zr541       O560   2.459       .  S
Zr541       O568   2.471       .  S
Zr541       O556   2.434       .  S
Zr541       O547   2.382       .  S
Zr541       O548   2.420       .  S
Zr541       O549   2.376       .  S
Zr541       O550   2.392       .  S
Zr542       O561   2.436       .  S
Zr542       O554   2.436       .  S
Zr542       O555   2.443       .  S
Zr542       O548   2.389       .  S
Zr542       O549   2.384       .  S
Zr543       O545   2.437       .  S
Zr543       O567   2.439       .  S
Zr543       O569   2.413       .  S
Zr543       O547   2.373       .  S
Zr543       O550   2.397       .  S
Zr544       O570   2.433       .  S
Zr544       O571   2.435       .  S
Zr544       O546   2.438       .  S
Zr544       O547   2.367       .  S
Zr544       O548   2.391       .  S
O545        H582   0.990       .  S
O546        H577   0.990       .  S
O546        H591   0.990       .  S
O548        H574   0.965       .  S
O549       Zr559   2.381       .  S
O550       Zr559   2.390       .  S
O550        H575   0.965       .  S
C551       C2957   1.486       .  S
C552       C3027   1.492       .  S
C553       C2929   1.484       .  S
O554        H590   0.990       .  S
O555        C557   1.286       .  A
O556        C557   1.284       .  A
C557       C2971   1.483       .  S
O558       Zr559   2.440       .  S
O558        H587   0.990       .  S
Zr559       O562   2.439       .  S
Zr559       O563   2.439       .  S
Zr559       O564   2.395       .  S
O560        C565   1.288       .  A
O561        H578   0.990       .  S
O561        H593   0.990       .  S
O562        H579   0.990       .  S
O563        H583   0.990       .  S
O563        H592   0.990       .  S
O564        C565   1.277       .  A
C565       C2940   1.491       .  S
O566        H585   0.991       .  S
O566        H589   0.990       .  S
O567        H581   0.990       .  S
O567        H588   0.990       .  S
O568        C572   1.291       .  A
O569        C572   1.282       .  A
O570        H580   0.990       .  S
O571        H584   0.990       .  S
C572       C2912   1.471       .  S
Zr595       O596   2.442       .  S
Zr595       O597   2.468       .  S
Zr595       O598   2.456       .  S
Zr595       O601   2.451       .  S
Zr595       O603   2.390       .  S
Zr595       O604   2.380       .  S
Zr595       O605   2.416       .  S
Zr595       O606   2.403       .  S
O596        H652   0.990       .  S
O596        H660   0.990       .  S
O597        C617   1.289       .  A
O598        C619   1.287       .  A
O599       Zr609   2.414       .  S
O599        C618   1.281       .  A
O600       Zr608   2.407       .  S
O600        C619   1.280       .  A
O601        C618   1.288       .  A
O602       Zr610   2.395       .  S
O602        C617   1.277       .  A
O603       Zr608   2.407       .  S
O603       Zr610   2.378       .  S
O604       Zr609   2.391       .  S
O604       Zr610   2.387       .  S
O604        H639   0.965       .  S
O605       Zr608   2.408       .  S
O605       Zr625   2.390   1_556  S
O605        H642   0.965       .  S
O606       Zr609   2.382       .  S
O606       Zr625   2.382   1_556  S
Zr607       O632   2.442       .  S
Zr607       O626   2.452       .  S
Zr607       O634   2.471   1_554  S
Zr607       O622   2.436       .  S
Zr607       O613   2.379   1_554  S
Zr607       O614   2.419   1_554  S
Zr607       O615   2.377       .  S
Zr607       O616   2.393       .  S
Zr608       O627   2.437   1_556  S
Zr608       O620   2.433       .  S
Zr608       O621   2.437   1_556  S
Zr608       O614   2.392       .  S
Zr608       O615   2.382   1_556  S
Zr609       O611   2.437       .  S
Zr609       O633   2.439       .  S
Zr609       O635   2.405       .  S
Zr609       O613   2.370       .  S
Zr609       O616   2.395   1_556  S
Zr610       O636   2.436       .  S
Zr610       O637   2.435       .  S
Zr610       O612   2.435       .  S
Zr610       O613   2.365       .  S
Zr610       O614   2.392       .  S
O611        H648   0.990       .  S
O612        H643   0.990       .  S
O612        H657   0.990       .  S
O614        H640   0.965       .  S
O615       Zr625   2.379       .  S
O616       Zr625   2.391       .  S
O616        H641   0.966       .  S
C617       C2943   1.489       .  S
C618       C2999   1.477       .  S
C619       C2884   1.481       .  S
O620        H656   0.989       .  S
O621        C623   1.285       .  A
O622        C623   1.285       .  A
C623       C2898   1.497       .  S
O624       Zr625   2.439       .  S
O624        H653   0.991       .  S
Zr625       O628   2.439       .  S
Zr625       O629   2.440       .  S
Zr625       O630   2.387       .  S
O626        C631   1.287       .  A
O627        H644   0.990       .  S
O627        H659   0.990       .  S
O628        H645   0.990       .  S
O629        H649   0.990       .  S
O629        H658   0.990       .  S
O630        C631   1.275       .  A
C631       C2954   1.481       .  S
O632        H651   0.991       .  S
O632        H655   0.990       .  S
O633        H647   0.990       .  S
O633        H654   0.990       .  S
O634        C638   1.291       .  A
O635        C638   1.281       .  A
O636        H646   0.990       .  S
O637        H650   0.991       .  S
C638       C2870   1.473       .  S
Zr661       O662   2.440       .  S
Zr661       O663   2.460       .  S
Zr661       O664   2.469       .  S
Zr661       O667   2.457       .  S
Zr661       O669   2.387       .  S
Zr661       O670   2.385       .  S
Zr661       O671   2.413       .  S
Zr661       O672   2.405       .  S
O662        H718   0.990       .  S
O662        H726   0.990       .  S
O663        C683   1.289       .  A
O664        C685   1.291       .  A
O665       Zr675   2.419       .  S
O665        C684   1.282       .  A
O666       Zr674   2.418       .  S
O666        C685   1.283       .  A
O667        C684   1.288       .  A
O668       Zr676   2.386       .  S
O668        C683   1.274       .  A
O669       Zr674   2.402       .  S
O669       Zr676   2.384       .  S
O670       Zr675   2.391       .  S
O670       Zr676   2.386       .  S
O670        H705   0.966       .  S
O671       Zr674   2.405       .  S
O671       Zr691   2.382       .  S
O671        H708   0.964       .  S
O672       Zr675   2.380       .  S
O672       Zr691   2.382       .  S
Zr673       O698   2.440       .  S
Zr673       O692   2.450       .  S
Zr673       O700   2.478       .  S
Zr673       O688   2.452       .  S
Zr673       O679   2.387       .  S
Zr673       O680   2.414       .  S
Zr673       O681   2.382       .  S
Zr673       O682   2.394       .  S
Zr674       O693   2.437       .  S
Zr674       O686   2.435       .  S
Zr674       O687   2.432       .  S
Zr674       O680   2.396       .  S
Zr674       O681   2.389       .  S
Zr675       O677   2.435       .  S
Zr675       O699   2.435       .  S
Zr675       O701   2.418       .  S
Zr675       O679   2.380       .  S
Zr675       O682   2.392       .  S
Zr676       O702   2.436       .  S
Zr676       O703   2.435       .  S
Zr676       O678   2.436       .  S
Zr676       O679   2.369       .  S
Zr676       O680   2.386       .  S
O677        H714   0.990       .  S
O678        H709   0.990       .  S
O678        H723   0.990       .  S
O680        H706   0.965       .  S
O681       Zr691   2.382       .  S
O682       Zr691   2.381       .  S
O682        H707   0.966       .  S
C683       C2856   1.484       .  S
C684       C2828   1.480       .  S
C685       C2814   1.497       .  S
O686        H722   0.990       .  S
O687        C689   1.285       .  A
O688        C689   1.288       .  A
C689       C2901   1.489       .  S
O690       Zr691   2.440       .  S
O690        H719   0.991       .  S
Zr691       O694   2.439       .  S
Zr691       O695   2.439       .  S
Zr691       O696   2.397       .  S
O692        C697   1.287       .  A
O693        H710   0.990       .  S
O693        H725   0.990       .  S
O694        H711   0.990       .  S
O695        H715   0.990       .  S
O695        H724   0.990       .  S
O696        C697   1.278       .  A
C697       C2842   1.494   1_554  S
O698        H717   0.990       .  S
O698        H721   0.990       .  S
O699        H713   0.990       .  S
O699        H720   0.990       .  S
O700        C704   1.291       .  A
O701        C704   1.280       .  A
O702        H712   0.990       .  S
O703        H716   0.990       .  S
C704       C2803   1.498       .  S
Zr727       O728   2.443       .  S
Zr727       O729   2.462       .  S
Zr727       O730   2.461       .  S
Zr727       O733   2.467       .  S
Zr727       O735   2.393       .  S
Zr727       O736   2.383       .  S
Zr727       O737   2.417       .  S
Zr727       O738   2.399       .  S
O728        H784   0.990       .  S
O728        H792   0.991       .  S
O729        C749   1.289       .  A
O730        C751   1.288       .  A
O731       Zr741   2.413       .  S
O731        C750   1.282       .  A
O732       Zr740   2.401       .  S
O732        C751   1.279       .  A
O733        C750   1.291       .  A
O734       Zr742   2.395       .  S
O734        C749   1.277       .  A
O735       Zr740   2.404       .  S
O735       Zr742   2.371       .  S
O736       Zr741   2.387       .  S
O736       Zr742   2.389       .  S
O736        H771   0.966       .  S
O737       Zr740   2.413       .  S
O737       Zr757   2.392       .  S
O737        H774   0.965       .  S
O738       Zr741   2.378       .  S
O738       Zr757   2.378       .  S
Zr739       O764   2.442       .  S
Zr739       O758   2.464       .  S
Zr739       O766   2.463       .  S
Zr739       O754   2.436       .  S
Zr739       O745   2.387       .  S
Zr739       O746   2.422       .  S
Zr739       O747   2.374       .  S
Zr739       O748   2.393       .  S
Zr740       O759   2.435       .  S
Zr740       O752   2.435       .  S
Zr740       O753   2.448       .  S
Zr740       O746   2.392       .  S
Zr740       O747   2.386       .  S
Zr741       O743   2.436       .  S
Zr741       O765   2.437       .  S
Zr741       O767   2.402       .  S
Zr741       O745   2.370       .  S
Zr741       O748   2.397       .  S
Zr742       O768   2.434       .  S
Zr742       O769   2.435       .  S
Zr742       O744   2.436       .  S
Zr742       O745   2.368       .  S
Zr742       O746   2.396       .  S
O743        H780   0.990       .  S
O744        H775   0.990       .  S
O744        H789   0.990       .  S
O746        H772   0.965       .  S
O747       Zr757   2.380       .  S
O748       Zr757   2.388       .  S
O748        H773   0.966       .  S
C749       C2845   1.491       .  S
C750       C2786   1.491       .  S
C751       C2775   1.479       .  S
O752        H788   0.990       .  S
O753        C755   1.288       .  A
O754        C755   1.285       .  A
C755       C2968   1.499       .  S
O756       Zr757   2.439       .  S
O756        H785   0.991       .  S
Zr757       O760   2.437       .  S
Zr757       O761   2.441       .  S
Zr757       O762   2.388       .  S
O758        C763   1.289       .  A
O759        H776   0.990       .  S
O759        H791   0.990       .  S
O760        H777   0.990       .  S
O761        H781   0.989       .  S
O761        H790   0.989       .  S
O762        C763   1.275       .  A
C763       C2859   1.485       .  S
O764        H783   0.990       .  S
O764        H787   0.990       .  S
O765        H779   0.990       .  S
O765        H786   0.990       .  S
O766        C770   1.289       .  A
O767        C770   1.280       .  A
O768        H778   0.990       .  S
O769        H782   0.990       .  S
C770       C2761   1.466       .  S
Zr793       O794   2.440       .  S
Zr793       O795   2.448       .  S
Zr793       O796   2.466       .  S
Zr793       O799   2.446       .  S
Zr793       O801   2.393       .  S
Zr793       O802   2.390       .  S
Zr793       O803   2.425       .  S
Zr793       O804   2.410       .  S
O794        H850   0.990       .  S
O794        H858   0.990       .  S
O795        C815   1.286       .  A
O796        C817   1.285       .  A
O797       Zr807   2.431       .  S
O797        C816   1.284       .  A
O798       Zr806   2.408       .  S
O798        C817   1.274       .  A
O799        C816   1.288       .  A
O800       Zr808   2.402       .  S
O800        C815   1.278       .  A
O801       Zr806   2.408       .  S
O801       Zr808   2.384       .  S
O802       Zr807   2.386       .  S
O802       Zr808   2.374       .  S
O802        H837   0.965       .  S
O803       Zr806   2.399       .  S
O803       Zr823   2.377       .  S
O803        H840   0.964       .  S
O804       Zr807   2.386       .  S
O804       Zr823   2.392       .  S
Zr805       O830   2.443   1_554  S
Zr805       O824   2.471   1_554  S
Zr805       O832   2.444       .  S
Zr805       O820   2.450   1_554  S
Zr805       O811   2.411       .  S
Zr805       O812   2.419       .  S
Zr805       O813   2.370       .  S
Zr805       O814   2.392       .  S
Zr806       O825   2.435       .  S
Zr806       O818   2.436       .  S
Zr806       O819   2.420       .  S
Zr806       O812   2.400       .  S
Zr806       O813   2.382       .  S
Zr807       O809   2.434       .  S
Zr807       O831   2.440       .  S
Zr807       O833   2.416       .  S
Zr807       O811   2.395       .  S
Zr807       O814   2.399       .  S
Zr808       O834   2.437       .  S
Zr808       O835   2.436       .  S
Zr808       O810   2.439       .  S
Zr808       O811   2.391       .  S
Zr808       O812   2.376       .  S
O809        H846   0.990       .  S
O810        H841   0.990       .  S
O810        H855   0.990       .  S
O812        H838   0.964       .  S
O813       Zr823   2.384       .  S
O814       Zr823   2.379       .  S
O814        H839   0.965   1_554  S
C815       C2730   1.484       .  S
C816       C2744   1.485       .  S
C817       C2674   1.500       .  S
O818        H854   0.990       .  S
O819        C821   1.281       .  A
O820        C821   1.287   1_556  A
C821       C2702   1.478   1_554  S
O822       Zr823   2.436       .  S
O822        H851   0.990       .  S
Zr823       O826   2.437   1_554  S
Zr823       O827   2.442   1_554  S
Zr823       O828   2.395   1_554  S
O824        C829   1.290       .  A
O825        H842   0.990   1_554  S
O825        H857   0.990       .  S
O826        H843   0.990       .  S
O827        H847   0.990       .  S
O827        H856   0.990       .  S
O828        C829   1.277       .  A
C829       C2719   1.496       .  S
O830        H849   0.991       .  S
O830        H853   0.990       .  S
O831        H845   0.990       .  S
O831        H852   0.990       .  S
O832        C836   1.288       .  A
O833        C836   1.282       .  A
O834        H844   0.990       .  S
O835        H848   0.990       .  S
C836       C2691   1.488       .  S
Zr859       O860   2.441       .  S
Zr859       O861   2.457       .  S
Zr859       O862   2.473       .  S
Zr859       O865   2.441       .  S
Zr859       O867   2.392       .  S
Zr859       O868   2.392       .  S
Zr859       O869   2.429       .  S
Zr859       O870   2.413       .  S
O860        H916   0.990       .  S
O860        H924   0.991       .  S
O861        C881   1.288       .  A
O862        C883   1.285       .  A
O863       Zr873   2.440       .  S
O863        C882   1.286       .  A
O864       Zr872   2.409       .  S
O864        C883   1.273       .  A
O865        C882   1.286       .  A
O866       Zr874   2.406       .  S
O866        C881   1.279       .  A
O867       Zr872   2.409       .  S
O867       Zr874   2.383       .  S
O868       Zr873   2.389       .  S
O868       Zr874   2.374       .  S
O868        H903   0.966       .  S
O869       Zr872   2.401       .  S
O869       Zr889   2.375       .  S
O869        H906   0.964       .  S
O870       Zr873   2.388       .  S
O870       Zr889   2.387       .  S
Zr871       O896   2.442       .  S
Zr871       O890   2.455       .  S
Zr871       O898   2.450       .  S
Zr871       O886   2.458       .  S
Zr871       O877   2.407       .  S
Zr871       O878   2.413       .  S
Zr871       O879   2.376       .  S
Zr871       O880   2.393       .  S
Zr872       O891   2.438       .  S
Zr872       O884   2.435       .  S
Zr872       O885   2.418       .  S
Zr872       O878   2.402       .  S
Zr872       O879   2.389       .  S
Zr873       O875   2.435       .  S
Zr873       O897   2.436       .  S
Zr873       O899   2.420       .  S
Zr873       O877   2.393       .  S
Zr873       O880   2.396       .  S
Zr874       O900   2.435       .  S
Zr874       O901   2.435       .  S
Zr874       O876   2.437       .  S
Zr874       O877   2.392       .  S
Zr874       O878   2.375       .  S
O875        H912   0.990       .  S
O876        H907   0.990       .  S
O876        H921   0.990       .  S
O878        H904   0.963       .  S
O879       Zr889   2.390       .  S
O880       Zr889   2.378       .  S
O880        H905   0.966       .  S
C881       C2716   1.495       .  S
C882       C2660   1.484       .  S
C883       C2618   1.504       .  S
O884        H920   0.990       .  S
O885        C887   1.281       .  A
O886        C887   1.289       .  A
C887       C2646   1.482       .  S
O888       Zr889   2.437       .  S
O888        H917   0.990       .  S
Zr889       O892   2.437       .  S
Zr889       O893   2.442       .  S
Zr889       O894   2.391       .  S
O890        C895   1.288       .  A
O891        H908   0.990       .  S
O891        H923   0.990       .  S
O892        H909   0.990       .  S
O893        H913   0.990       .  S
O893        H922   0.990       .  S
O894        C895   1.276       .  A
C895       C2733   1.487       .  S
O896        H915   0.991       .  S
O896        H919   0.990       .  S
O897        H911   0.990       .  S
O897        H918   0.990       .  S
O898        C902   1.288       .  A
O899        C902   1.283       .  A
O900        H910   0.990       .  S
O901        H914   0.990       .  S
C902       C2635   1.495       .  S
Zr925       O926   2.441       .  S
Zr925       O927   2.455       .  S
Zr925       O928   2.467       .  S
Zr925       O931   2.429       .  S
Zr925       O933   2.390       .  S
Zr925       O934   2.393       .  S
Zr925       O935   2.426       .  S
Zr925       O936   2.415       .  S
O926        H982   0.990       .  S
O926        H990   0.990       .  S
O927        C947   1.287       .  A
O928        C949   1.284       .  A
O929       Zr939   2.450       .  S
O929        C948   1.289       .  A
O930       Zr938   2.415       .  S
O930        C949   1.275       .  A
O931        C948   1.284       .  A
O932       Zr940   2.390       .  S
O932        C947   1.277       .  A
O933       Zr938   2.408       .  S
O933       Zr940   2.386       .  S
O934       Zr939   2.389       .  S
O934       Zr940   2.372       .  S
O934        H969   0.965       .  S
O935       Zr938   2.392       .  S
O935       Zr955   2.375       .  S
O935        H972   0.965       .  S
O936       Zr939   2.389       .  S
O936       Zr955   2.389       .  S
Zr937       O962   2.440       .  S
Zr937       O956   2.459       .  S
Zr937       O964   2.451       .  S
Zr937       O952   2.465       .  S
Zr937       O943   2.407       .  S
Zr937       O944   2.414       .  S
Zr937       O945   2.379       .  S
Zr937       O946   2.399       .  S
Zr938       O957   2.434       .  S
Zr938       O950   2.435       .  S
Zr938       O951   2.414       .  S
Zr938       O944   2.402       .  S
Zr938       O945   2.381       .  S
Zr939       O941   2.435       .  S
Zr939       O963   2.438       .  S
Zr939       O965   2.429       .  S
Zr939       O943   2.397       .  S
Zr939       O946   2.396       .  S
Zr940       O966   2.436       .  S
Zr940       O967   2.436       .  S
Zr940       O942   2.437       .  S
Zr940       O943   2.390       .  S
Zr940       O944   2.368       .  S
O941        H978   0.990       .  S
O942        H973   0.990       .  S
O942        H987   0.990       .  S
O944        H970   0.963       .  S
O945       Zr955   2.391       .  S
O946       Zr955   2.380       .  S
O946        H971   0.966       .  S
C947       C2607   1.484       .  S
C948       C2747   1.498       .  S
C949       C2576   1.501       .  S
O950        H986   0.990       .  S
O951        C953   1.282       .  A
O952        C953   1.288       .  A
C953       C2926   1.489       .  S
O954       Zr955   2.439       .  S
O954        H983   0.990       .  S
Zr955       O958   2.438       .  S
Zr955       O959   2.440       .  S
Zr955       O960   2.396       .  S
O956        C961   1.289       .  A
O957        H974   0.990       .  S
O957        H989   0.989       .  S
O958        H975   0.991       .  S
O959        H979   0.990       .  S
O959        H988   0.990       .  S
O960        C961   1.277       .  A
C961       C2590   1.489       .  S
O962        H981   0.990       .  S
O962        H985   0.990       .  S
O963        H977   0.990       .  S
O963        H984   0.990       .  S
O964        C968   1.287       .  A
O965        C968   1.285       .  A
O966        H976   0.990       .  S
O967        H980   0.990       .  S
C968       C3391   1.487       .  S
Zr991       O992   2.439       .  S
Zr991       O993   2.453       .  S
Zr991       O994   2.476       .  S
Zr991       O997   2.428       .  S
Zr991       O999   2.385       .  S
Zr991      O1000   2.395       .  S
Zr991      O1001   2.423       .  S
Zr991      O1002   2.417       .  S
O992       H1048   0.990       .  S
O992       H1056   0.990       .  S
O993       C1013   1.288       .  A
O994       C1015   1.287       .  A
O995      Zr1005   2.456       .  S
O995       C1014   1.289       .  A
O996      Zr1004   2.410       .  S
O996       C1015   1.273       .  A
O997       C1014   1.285       .  A
O998      Zr1006   2.400       .  S
O998       C1013   1.277       .  A
O999      Zr1004   2.400       .  S
O999      Zr1006   2.383       .  S
O1000     Zr1005   2.394       .  S
O1000     Zr1006   2.379       .  S
O1000      H1035   0.966       .  S
O1001     Zr1004   2.398       .  S
O1001     Zr1021   2.371       .  S
O1001      H1038   0.964       .  S
O1002     Zr1005   2.392       .  S
O1002     Zr1021   2.392       .  S
Zr1003     O1028   2.441       .  S
Zr1003     O1022   2.451       .  S
Zr1003     O1030   2.438       .  S
Zr1003     O1018   2.449       .  S
Zr1003     O1009   2.407       .  S
Zr1003     O1010   2.413       .  S
Zr1003     O1011   2.371       .  S
Zr1003     O1012   2.393       .  S
Zr1004     O1023   2.436       .  S
Zr1004     O1016   2.434       .  S
Zr1004     O1017   2.408       .  S
Zr1004     O1010   2.396       .  S
Zr1004     O1011   2.388       .  S
Zr1005     O1007   2.436       .  S
Zr1005     O1029   2.437       .  S
Zr1005     O1031   2.437       .  S
Zr1005     O1009   2.394       .  S
Zr1005     O1012   2.400       .  S
Zr1006     O1032   2.436       .  S
Zr1006     O1033   2.437       .  S
Zr1006     O1008   2.437       .  S
Zr1006     O1009   2.388       .  S
Zr1006     O1010   2.380       .  S
O1007      H1044   0.990       .  S
O1008      H1039   0.990       .  S
O1008      H1053   0.990       .  S
O1010      H1036   0.964       .  S
O1011     Zr1021   2.387       .  S
O1012     Zr1021   2.382       .  S
O1012      H1037   0.966       .  S
C1013      C2593   1.486       .  S
C1014      C2663   1.499       .  S
C1015      C2562   1.503       .  S
O1016      H1052   0.990       .  S
O1017      C1019   1.279       .  A
O1018      C1019   1.286       .  A
C1019      C2887   1.478       .  S
O1020     Zr1021   2.440       .  S
O1020      H1049   0.990       .  S
Zr1021     O1024   2.439       .  S
Zr1021     O1025   2.442       .  S
Zr1021     O1026   2.390       .  S
O1022      C1027   1.287       .  A
O1023      H1040   0.990       .  S
O1023      H1055   0.989       .  S
O1024      H1041   0.990       .  S
O1025      H1045   0.990       .  S
O1025      H1054   0.989       .  S
O1026      C1027   1.276       .  A
C1027      C2604   1.481   1_556  S
O1028      H1047   0.991       .  S
O1028      H1051   0.990       .  S
O1029      H1043   0.990       .  S
O1029      H1050   0.990       .  S
O1030      C1034   1.285       .  A
O1031      C1034   1.287       .  A
O1032      H1042   0.991       .  S
O1033      H1046   0.990       .  S
C1034      C3335   1.497       .  S
Zr1057     O1058   2.443   1_554  S
Zr1057     O1059   2.455   1_554  S
Zr1057     O1060   2.463       .  S
Zr1057     O1063   2.421   1_554  S
Zr1057     O1065   2.386       .  S
Zr1057     O1066   2.390   1_554  S
Zr1057     O1067   2.428       .  S
Zr1057     O1068   2.415       .  S
O1058      H1114   0.990       .  S
O1058      H1122   0.990       .  S
O1059      C1079   1.287       .  A
O1060      C1081   1.284       .  A
O1061     Zr1071   2.434       .  S
O1061      C1080   1.283   1_554  A
O1062     Zr1070   2.415       .  S
O1062      C1081   1.273       .  A
O1063      C1080   1.284       .  A
O1064     Zr1072   2.392       .  S
O1064      C1079   1.277       .  A
O1065     Zr1070   2.405       .  S
O1065     Zr1072   2.382   1_554  S
O1066     Zr1071   2.388   1_556  S
O1066     Zr1072   2.371       .  S
O1066      H1101   0.966       .  S
O1067     Zr1070   2.401       .  S
O1067     Zr1087   2.378       .  S
O1067      H1104   0.965       .  S
O1068     Zr1071   2.389       .  S
O1068     Zr1087   2.392       .  S
Zr1069     O1094   2.442       .  S
Zr1069     O1088   2.461       .  S
Zr1069     O1096   2.451       .  S
Zr1069     O1084   2.446       .  S
Zr1069     O1075   2.407       .  S
Zr1069     O1076   2.421       .  S
Zr1069     O1077   2.377       .  S
Zr1069     O1078   2.390       .  S
Zr1070     O1089   2.436       .  S
Zr1070     O1082   2.435       .  S
Zr1070     O1083   2.426       .  S
Zr1070     O1076   2.399       .  S
Zr1070     O1077   2.390       .  S
Zr1071     O1073   2.434       .  S
Zr1071     O1095   2.439   1_554  S
Zr1071     O1097   2.425       .  S
Zr1071     O1075   2.392       .  S
Zr1071     O1078   2.394       .  S
Zr1072     O1098   2.435       .  S
Zr1072     O1099   2.434       .  S
Zr1072     O1074   2.439       .  S
Zr1072     O1075   2.391   1_556  S
Zr1072     O1076   2.373   1_556  S
O1073      H1110   0.990       .  S
O1074      H1105   0.990       .  S
O1074      H1119   0.990       .  S
O1076      H1102   0.963       .  S
O1077     Zr1087   2.389       .  S
O1078     Zr1087   2.380       .  S
O1078      H1103   0.966       .  S
C1079      C2520   1.479       .  S
C1080      C2548   1.494       .  S
C1081      C2677   1.495       .  S
O1082      H1118   0.990       .  S
O1083      C1085   1.284       .  A
O1084      C1085   1.286       .  A
C1085      C2506   1.478       .  S
O1086     Zr1087   2.441       .  S
O1086      H1115   0.990       .  S
Zr1087     O1090   2.438       .  S
Zr1087     O1091   2.442       .  S
Zr1087     O1092   2.390       .  S
O1088      C1093   1.287       .  A
O1089      H1106   0.990       .  S
O1089      H1121   0.990       .  S
O1090      H1107   0.990       .  S
O1091      H1111   0.990       .  S
O1091      H1120   0.989       .  S
O1092      C1093   1.276       .  A
C1093      C2534   1.497       .  S
O1094      H1113   0.991       .  S
O1094      H1117   0.990       .  S
O1095      H1109   0.990   1_556  S
O1095      H1116   0.990       .  S
O1096      C1100   1.287       .  A
O1097      C1100   1.284       .  A
O1098      H1108   0.990       .  S
O1099      H1112   0.990   1_556  S
C1100      C2495   1.493       .  S
Zr1123     O1124   2.442       .  S
Zr1123     O1125   2.461       .  S
Zr1123     O1126   2.485       .  S
Zr1123     O1129   2.420       .  S
Zr1123     O1131   2.382       .  S
Zr1123     O1132   2.395       .  S
Zr1123     O1133   2.424       .  S
Zr1123     O1134   2.422       .  S
O1124      H1180   0.990       .  S
O1124      H1188   0.990       .  S
O1125      C1145   1.288       .  A
O1126      C1147   1.288       .  A
O1127     Zr1137   2.426       .  S
O1127      C1146   1.283       .  A
O1128     Zr1136   2.411       .  S
O1128      C1147   1.273       .  A
O1129      C1146   1.284       .  A
O1130     Zr1138   2.396       .  S
O1130      C1145   1.277       .  A
O1131     Zr1136   2.403       .  S
O1131     Zr1138   2.387       .  S
O1132     Zr1137   2.390       .  S
O1132     Zr1138   2.375       .  S
O1132      H1167   0.966       .  S
O1133     Zr1136   2.395       .  S
O1133     Zr1153   2.379       .  S
O1133      H1170   0.964       .  S
O1134     Zr1137   2.391       .  S
O1134     Zr1153   2.395       .  S
Zr1135     O1160   2.441       .  S
Zr1135     O1154   2.445       .  S
Zr1135     O1162   2.439       .  S
Zr1135     O1150   2.451       .  S
Zr1135     O1141   2.401       .  S
Zr1135     O1142   2.413       .  S
Zr1135     O1143   2.376       .  S
Zr1135     O1144   2.395       .  S
Zr1136     O1155   2.434       .  S
Zr1136     O1148   2.433       .  S
Zr1136     O1149   2.413       .  S
Zr1136     O1142   2.398       .  S
Zr1136     O1143   2.384       .  S
Zr1137     O1139   2.436       .  S
Zr1137     O1161   2.439       .  S
Zr1137     O1163   2.425       .  S
Zr1137     O1141   2.385       .  S
Zr1137     O1144   2.392       .  S
Zr1138     O1164   2.436       .  S
Zr1138     O1165   2.435       .  S
Zr1138     O1140   2.436       .  S
Zr1138     O1141   2.381       .  S
Zr1138     O1142   2.373       .  S
O1139      H1176   0.990       .  S
O1140      H1171   0.990       .  S
O1140      H1185   0.990       .  S
O1142      H1168   0.964       .  S
O1143     Zr1153   2.386       .  S
O1144     Zr1153   2.378       .  S
O1144      H1169   0.966       .  S
C1145      C2537   1.496       .  S
C1146      C2478   1.488       .  S
C1147      C2621   1.504       .  S
O1148      H1184   0.990       .  S
O1149      C1151   1.281       .  A
O1150      C1151   1.287       .  A
C1151      C2464   1.478       .  S
O1152     Zr1153   2.439       .  S
O1152      H1181   0.990       .  S
Zr1153     O1156   2.438       .  S
Zr1153     O1157   2.444       .  S
Zr1153     O1158   2.397       .  S
O1154      C1159   1.284       .  A
O1155      H1172   0.990       .  S
O1155      H1187   0.990       .  S
O1156      H1173   0.990       .  S
O1157      H1177   0.990       .  S
O1157      H1186   0.990       .  S
O1158      C1159   1.277       .  A
C1159      C2523   1.479       .  S
O1160      H1179   0.991       .  S
O1160      H1183   0.989       .  S
O1161      H1175   0.990       .  S
O1161      H1182   0.990       .  S
O1162      C1166   1.286       .  A
O1163      C1166   1.284       .  A
O1164      H1174   0.990       .  S
O1165      H1178   0.991       .  S
C1166      C2450   1.490       .  S
Zr1189     O1190   2.442       .  S
Zr1189     O1191   2.460       .  S
Zr1189     O1192   2.462       .  S
Zr1189     O1195   2.421       .  S
Zr1189     O1197   2.385       .  S
Zr1189     O1198   2.387       .  S
Zr1189     O1199   2.430       .  S
Zr1189     O1200   2.412       .  S
O1190      H1246   0.990       .  S
O1190      H1254   0.991       .  S
O1191      C1211   1.288       .  A
O1192      C1213   1.283       .  A
O1193     Zr1203   2.424       .  S
O1193      C1212   1.284       .  A
O1194     Zr1202   2.406       .  S
O1194      C1213   1.271       .  A
O1195      C1212   1.283       .  A
O1196     Zr1204   2.408       .  S
O1196      C1211   1.279       .  A
O1197     Zr1202   2.402       .  S
O1197     Zr1204   2.380       .  S
O1198     Zr1203   2.387       .  S
O1198     Zr1204   2.372       .  S
O1198      H1233   0.965       .  S
O1199     Zr1202   2.397       .  S
O1199     Zr1219   2.376       .  S
O1199      H1236   0.964       .  S
O1200     Zr1203   2.387       .  S
O1200     Zr1219   2.389       .  S
Zr1201     O1226   2.441       .  S
Zr1201     O1220   2.447       .  S
Zr1201     O1228   2.456       .  S
Zr1201     O1216   2.460       .  S
Zr1201     O1207   2.399       .  S
Zr1201     O1208   2.415       .  S
Zr1201     O1209   2.380       .  S
Zr1201     O1210   2.395       .  S
Zr1202     O1221   2.434       .  S
Zr1202     O1214   2.433       .  S
Zr1202     O1215   2.411       .  S
Zr1202     O1208   2.398       .  S
Zr1202     O1209   2.387       .  S
Zr1203     O1205   2.435       .  S
Zr1203     O1227   2.440       .  S
Zr1203     O1229   2.416       .  S
Zr1203     O1207   2.386       .  S
Zr1203     O1210   2.395       .  S
Zr1204     O1230   2.436       .  S
Zr1204     O1231   2.435       .  S
Zr1204     O1206   2.438       .  S
Zr1204     O1207   2.385       .  S
Zr1204     O1208   2.379       .  S
O1205      H1242   0.990       .  S
O1206      H1237   0.990       .  S
O1206      H1251   0.990       .  S
O1208      H1234   0.963       .  S
O1209     Zr1219   2.390       .  S
O1210     Zr1219   2.381       .  S
O1210      H1235   0.966       .  S
C1211      C2425   1.490       .  S
C1212      C2481   1.478       .  S
C1213      C2579   1.492       .  S
O1214      H1250   0.990       .  S
O1215      C1217   1.279       .  A
O1216      C1217   1.289       .  A
C1217      C2817   1.472       .  S
O1218     Zr1219   2.439       .  S
O1218      H1247   0.990       .  S
Zr1219     O1222   2.438       .  S
Zr1219     O1223   2.439       .  S
Zr1219     O1224   2.396       .  S
O1220      C1225   1.285       .  A
O1221      H1238   0.990       .  S
O1221      H1253   0.990       .  S
O1222      H1239   0.989       .  S
O1223      H1243   0.990       .  S
O1223      H1252   0.990       .  S
O1224      C1225   1.278       .  A
C1225      C2436   1.484       .  S
O1226      H1245   0.991       .  S
O1226      H1249   0.989       .  S
O1227      H1241   0.990       .  S
O1227      H1248   0.990       .  S
O1228      C1232   1.288       .  A
O1229      C1232   1.282       .  A
O1230      H1240   0.990       .  S
O1231      H1244   0.990       .  S
C1232      C3265   1.492       .  S
Zr1255     O1256   2.442       .  S
Zr1255     O1257   2.450       .  S
Zr1255     O1258   2.475       .  S
Zr1255     O1261   2.433       .  S
Zr1255     O1263   2.386       .  S
Zr1255     O1264   2.394       .  S
Zr1255     O1265   2.423       .  S
Zr1255     O1266   2.413       .  S
O1256      H1312   0.990       .  S
O1256      H1320   0.990       .  S
O1257      C1277   1.285       .  A
O1258      C1279   1.287       .  A
O1259     Zr1269   2.428       .  S
O1259      C1278   1.285       .  A
O1260     Zr1268   2.411       .  S
O1260      C1279   1.274       .  A
O1261      C1278   1.285       .  A
O1262     Zr1270   2.396       .  S
O1262      C1277   1.278       .  A
O1263     Zr1268   2.403       .  S
O1263     Zr1270   2.384       .  S
O1264     Zr1269   2.388       .  S
O1264     Zr1270   2.371       .  S
O1264      H1299   0.966       .  S
O1265     Zr1268   2.396       .  S
O1265     Zr1285   2.378       .  S
O1265      H1302   0.965       .  S
O1266     Zr1269   2.390       .  S
O1266     Zr1285   2.388       .  S
Zr1267     O1292   2.442       .  S
Zr1267     O1286   2.461       .  S
Zr1267     O1294   2.449       .  S
Zr1267     O1282   2.449       .  S
Zr1267     O1273   2.413       .  S
Zr1267     O1274   2.415       .  S
Zr1267     O1275   2.377       .  S
Zr1267     O1276   2.390       .  S
Zr1268     O1287   2.435       .  S
Zr1268     O1280   2.436       .  S
Zr1268     O1281   2.417       .  S
Zr1268     O1274   2.397       .  S
Zr1268     O1275   2.386       .  S
Zr1269     O1271   2.435       .  S
Zr1269     O1293   2.437       .  S
Zr1269     O1295   2.424       .  S
Zr1269     O1273   2.399       .  S
Zr1269     O1276   2.395       .  S
Zr1270     O1296   2.435       .  S
Zr1270     O1297   2.435       .  S
Zr1270     O1272   2.439       .  S
Zr1270     O1273   2.397       .  S
Zr1270     O1274   2.372       .  S
O1271      H1308   0.990       .  S
O1272      H1303   0.990       .  S
O1272      H1317   0.990       .  S
O1274      H1300   0.964       .  S
O1275     Zr1285   2.388       .  S
O1276     Zr1285   2.373       .  S
O1276      H1301   0.966       .  S
C1277      C2439   1.480   1_556  S
C1278      C2551   1.487       .  S
C1279      C2565   1.499       .  S
O1280      H1316   0.990       .  S
O1281      C1283   1.283       .  A
O1282      C1283   1.286       .  A
C1283      C2772   1.487       .  S
O1284     Zr1285   2.438       .  S
O1284      H1313   0.990       .  S
Zr1285     O1288   2.437       .  S
Zr1285     O1289   2.437       .  S
Zr1285     O1290   2.389       .  S
O1286      C1291   1.288       .  A
O1287      H1304   0.990       .  S
O1287      H1319   0.990       .  S
O1288      H1305   0.990       .  S
O1289      H1309   0.990       .  S
O1289      H1318   0.990       .  S
O1290      C1291   1.276       .  A
C1291      C2422   1.490       .  S
O1292      H1311   0.990       .  S
O1292      H1315   0.991       .  S
O1293      H1307   0.990       .  S
O1293      H1314   0.990       .  S
O1294      C1298   1.286       .  A
O1295      C1298   1.283       .  A
O1296      H1306   0.990       .  S
O1297      H1310   0.990       .  S
C1298      C3223   1.491       .  S
Zr1321     O1322   2.441       .  S
Zr1321     O1323   2.455       .  S
Zr1321     O1324   2.474       .  S
Zr1321     O1327   2.465       .  S
Zr1321     O1329   2.386       .  S
Zr1321     O1330   2.389       .  S
Zr1321     O1331   2.414       .  S
Zr1321     O1332   2.405       .  S
O1322      H1378   0.990       .  S
O1322      H1386   0.991       .  S
O1323      C1343   1.288       .  A
O1324      C1345   1.291       .  A
O1325     Zr1335   2.414       .  S
O1325      C1344   1.283       .  A
O1326     Zr1334   2.405       .  S
O1326      C1345   1.279       .  A
O1327      C1344   1.290       .  A
O1328     Zr1336   2.399       .  S
O1328      C1343   1.276       .  A
O1329     Zr1334   2.398       .  S
O1329     Zr1336   2.377       .  S
O1330     Zr1335   2.393       .  S
O1330     Zr1336   2.385       .  S
O1330      H1365   0.965       .  S
O1331     Zr1334   2.406       .  S
O1331     Zr1351   2.383       .  S
O1331      H1368   0.965       .  S
O1332     Zr1335   2.383       .  S
O1332     Zr1351   2.379       .  S
Zr1333     O1358   2.440       .  S
Zr1333     O1352   2.464       .  S
Zr1333     O1360   2.493       .  S
Zr1333     O1348   2.444       .  S
Zr1333     O1339   2.396       .  S
Zr1333     O1340   2.419       .  S
Zr1333     O1341   2.385       .  S
Zr1333     O1342   2.396       .  S
Zr1334     O1353   2.439       .  S
Zr1334     O1346   2.434       .  S
Zr1334     O1347   2.432       .  S
Zr1334     O1340   2.390       .  S
Zr1334     O1341   2.382       .  S
Zr1335     O1337   2.434       .  S
Zr1335     O1359   2.438       .  S
Zr1335     O1361   2.412       .  S
Zr1335     O1339   2.384       .  S
Zr1335     O1342   2.394       .  S
Zr1336     O1362   2.435       .  S
Zr1336     O1363   2.437       .  S
Zr1336     O1338   2.439       .  S
Zr1336     O1339   2.377       .  S
Zr1336     O1340   2.388       .  S
O1337      H1374   0.990       .  S
O1338      H1369   0.990       .  S
O1338      H1383   0.990       .  S
O1340      H1366   0.965       .  S
O1341     Zr1351   2.381       .  S
O1342     Zr1351   2.383       .  S
O1342      H1367   0.966       .  S
C1343      C2383   1.482   1_554  S
C1344      C2492   1.494       .  S
C1345      C2366   1.489       .  S
O1346      H1382   0.990       .  S
O1347      C1349   1.286       .  A
O1348      C1349   1.287       .  A
C1349      C2408   1.491       .  S
O1350     Zr1351   2.436       .  S
O1350      H1379   0.990       .  S
Zr1351     O1354   2.436       .  S
Zr1351     O1355   2.438       .  S
Zr1351     O1356   2.390       .  S
O1352      C1357   1.290       .  A
O1353      H1370   0.990       .  S
O1353      H1385   0.990       .  S
O1354      H1371   0.990       .  S
O1355      H1375   0.990       .  S
O1355      H1384   0.990       .  S
O1356      C1357   1.276       .  A
C1357      C2394   1.490       .  S
O1358      H1377   0.990       .  S
O1358      H1381   0.990       .  S
O1359      H1373   0.990       .  S
O1359      H1380   0.990       .  S
O1360      C1364   1.291       .  A
O1361      C1364   1.275       .  A
O1362      H1372   0.990       .  S
O1363      H1376   0.991       .  S
C1364      C3251   1.503       .  S
Zr1387     O1388   2.442       .  S
Zr1387     O1389   2.465       .  S
Zr1387     O1390   2.463       .  S
Zr1387     O1393   2.450       .  S
Zr1387     O1395   2.389       .  S
Zr1387     O1396   2.383       .  S
Zr1387     O1397   2.417       .  S
Zr1387     O1398   2.407       .  S
O1388      H1444   0.990       .  S
O1388      H1452   0.990       .  S
O1389      C1409   1.289       .  A
O1390      C1411   1.289       .  A
O1391     Zr1401   2.413       .  S
O1391      C1410   1.280       .  A
O1392     Zr1400   2.404       .  S
O1392      C1411   1.281       .  A
O1393      C1410   1.287       .  A
O1394     Zr1402   2.386       .  S
O1394      C1409   1.275       .  A
O1395     Zr1400   2.407       .  S
O1395     Zr1402   2.378       .  S
O1396     Zr1401   2.387       .  S
O1396     Zr1402   2.393       .  S
O1396      H1431   0.965       .  S
O1397     Zr1400   2.400       .  S
O1397     Zr1417   2.387       .  S
O1397      H1434   0.964       .  S
O1398     Zr1401   2.377       .  S
O1398     Zr1417   2.388       .  S
Zr1399     O1424   2.442       .  S
Zr1399     O1418   2.451       .  S
Zr1399     O1426   2.490       .  S
Zr1399     O1414   2.446       .  S
Zr1399     O1405   2.375       .  S
Zr1399     O1406   2.421       .  S
Zr1399     O1407   2.379       .  S
Zr1399     O1408   2.399       .  S
Zr1400     O1419   2.436       .  S
Zr1400     O1412   2.434       .  S
Zr1400     O1413   2.433       .  S
Zr1400     O1406   2.393       .  S
Zr1400     O1407   2.380       .  S
Zr1401     O1403   2.436       .  S
Zr1401     O1425   2.441       .  S
Zr1401     O1427   2.402       .  S
Zr1401     O1405   2.366       .  S
Zr1401     O1408   2.396       .  S
Zr1402     O1428   2.436       .  S
Zr1402     O1429   2.436       .  S
Zr1402     O1404   2.436       .  S
Zr1402     O1405   2.359       .  S
Zr1402     O1406   2.389       .  S
O1403      H1440   0.990       .  S
O1404      H1435   0.990       .  S
O1404      H1449   0.990       .  S
O1406      H1432   0.965       .  S
O1407     Zr1417   2.381       .  S
O1408     Zr1417   2.391       .  S
O1408      H1433   0.966       .  S
C1409      C2397   1.483       .  S
C1410      C2453   1.485       .  S
C1411      C2341   1.484       .  S
O1412      H1448   0.990       .  S
O1413      C1415   1.284       .  A
O1414      C1415   1.288       .  A
C1415      C2355   1.485       .  S
O1416     Zr1417   2.439       .  S
O1416      H1445   0.990       .  S
Zr1417     O1420   2.437       .  S
Zr1417     O1421   2.439       .  S
Zr1417     O1422   2.403       .  S
O1418      C1423   1.287       .  A
O1419      H1436   0.990       .  S
O1419      H1451   0.990       .  S
O1420      H1437   0.991       .  S
O1421      H1441   0.990       .  S
O1421      H1450   0.989       .  S
O1422      C1423   1.277       .  A
C1423      C2380   1.481       .  S
O1424      H1443   0.990       .  S
O1424      H1447   0.990       .  S
O1425      H1439   0.990       .  S
O1425      H1446   0.990       .  S
O1426      C1430   1.294       .  A
O1427      C1430   1.280       .  A
O1428      H1438   0.990       .  S
O1429      H1442   0.991       .  S
C1430      C3209   1.473       .  S
Zr1453     O1454   2.444       .  S
Zr1453     O1455   2.471       .  S
Zr1453     O1456   2.459       .  S
Zr1453     O1459   2.462       .  S
Zr1453     O1461   2.395       .  S
Zr1453     O1462   2.383       .  S
Zr1453     O1463   2.420       .  S
Zr1453     O1464   2.402       .  S
O1454      H1510   0.990       .  S
O1454      H1518   0.991       .  S
O1455      C1475   1.290       .  A
O1456      C1477   1.288       .  A
O1457     Zr1467   2.411       .  S
O1457      C1476   1.281       .  A
O1458     Zr1466   2.423       .  S
O1458      C1477   1.283       .  A
O1459      C1476   1.289       .  A
O1460     Zr1468   2.394       .  S
O1460      C1475   1.277       .  A
O1461     Zr1466   2.403       .  S
O1461     Zr1468   2.380       .  S
O1462     Zr1467   2.389       .  S
O1462     Zr1468   2.388       .  S
O1462      H1497   0.965       .  S
O1463     Zr1466   2.408       .  S
O1463     Zr1483   2.386       .  S
O1463      H1500   0.964       .  S
O1464     Zr1467   2.378       .  S
O1464     Zr1483   2.381       .  S
Zr1465     O1490   2.441       .  S
Zr1465     O1484   2.460       .  S
Zr1465     O1492   2.495       .  S
Zr1465     O1480   2.434       .  S
Zr1465     O1471   2.381       .  S
Zr1465     O1472   2.422       .  S
Zr1465     O1473   2.381       .  S
Zr1465     O1474   2.393       .  S
Zr1466     O1485   2.436       .  S
Zr1466     O1478   2.435       .  S
Zr1466     O1479   2.445       .  S
Zr1466     O1472   2.393       .  S
Zr1466     O1473   2.385       .  S
Zr1467     O1469   2.436       .  S
Zr1467     O1491   2.440       .  S
Zr1467     O1493   2.402       .  S
Zr1467     O1471   2.376       .  S
Zr1467     O1474   2.396       .  S
Zr1468     O1494   2.436       .  S
Zr1468     O1495   2.436       .  S
Zr1468     O1470   2.436       .  S
Zr1468     O1471   2.368       .  S
Zr1468     O1472   2.389       .  S
O1469      H1506   0.990       .  S
O1470      H1501   0.990       .  S
O1470      H1515   0.990       .  S
O1472      H1498   0.965       .  S
O1473     Zr1483   2.378       .  S
O1474     Zr1483   2.389       .  S
O1474      H1499   0.966       .  S
C1475      C2310   1.489       .  S
C1476      C2632   1.485       .  S
C1477      C3083   1.487       .  S
O1478      H1514   0.990       .  S
O1479      C1481   1.287       .  A
O1480      C1481   1.286       .  A
C1481      C2411   1.493       .  S
O1482     Zr1483   2.438       .  S
O1482      H1511   0.990       .  S
Zr1483     O1486   2.438       .  S
Zr1483     O1487   2.439       .  S
Zr1483     O1488   2.392       .  S
O1484      C1489   1.288       .  A
O1485      H1502   0.990       .  S
O1485      H1517   0.990       .  S
O1486      H1503   0.990       .  S
O1487      H1507   0.990       .  S
O1487      H1516   0.989       .  S
O1488      C1489   1.277       .  A
C1489      C2327   1.483       .  S
O1490      H1509   0.990       .  S
O1490      H1513   0.990       .  S
O1491      H1505   0.990       .  S
O1491      H1512   0.990       .  S
O1492      C1496   1.295       .  A
O1493      C1496   1.280       .  A
O1494      H1504   0.990       .  S
O1495      H1508   0.990       .  S
C1496      C3377   1.485       .  S
Zr1519     O1520   2.442   1_556  S
Zr1519     O1521   2.464   1_556  S
Zr1519     O1522   2.464       .  S
Zr1519     O1525   2.446   1_556  S
Zr1519     O1527   2.391       .  S
Zr1519     O1528   2.385       .  S
Zr1519     O1529   2.418       .  S
Zr1519     O1530   2.406       .  S
O1520      H1576   0.990       .  S
O1520      H1584   0.990       .  S
O1521      C1541   1.288       .  A
O1522      C1543   1.289       .  A
O1523     Zr1533   2.417       .  S
O1523      C1542   1.281       .  A
O1524     Zr1532   2.412       .  S
O1524      C1543   1.282       .  A
O1525      C1542   1.286   1_554  A
O1526     Zr1534   2.391   1_554  S
O1526      C1541   1.276       .  A
O1527     Zr1532   2.405       .  S
O1527     Zr1534   2.379       .  S
O1528     Zr1533   2.391       .  S
O1528     Zr1534   2.390       .  S
O1528      H1563   0.965   1_556  S
O1529     Zr1532   2.408       .  S
O1529     Zr1549   2.385       .  S
O1529      H1566   0.964       .  S
O1530     Zr1533   2.383       .  S
O1530     Zr1549   2.383       .  S
Zr1531     O1556   2.438       .  S
Zr1531     O1550   2.464       .  S
Zr1531     O1558   2.478       .  S
Zr1531     O1546   2.447       .  S
Zr1531     O1537   2.382       .  S
Zr1531     O1538   2.419       .  S
Zr1531     O1539   2.380       .  S
Zr1531     O1540   2.396       .  S
Zr1532     O1551   2.437       .  S
Zr1532     O1544   2.434       .  S
Zr1532     O1545   2.444       .  S
Zr1532     O1538   2.393       .  S
Zr1532     O1539   2.387       .  S
Zr1533     O1535   2.437       .  S
Zr1533     O1557   2.442       .  S
Zr1533     O1559   2.409       .  S
Zr1533     O1537   2.372       .  S
Zr1533     O1540   2.397       .  S
Zr1534     O1560   2.434   1_556  S
Zr1534     O1561   2.435       .  S
Zr1534     O1536   2.435   1_556  S
Zr1534     O1537   2.366       .  S
Zr1534     O1538   2.390       .  S
O1535      H1572   0.990       .  S
O1536      H1567   0.990       .  S
O1536      H1581   0.990       .  S
O1538      H1564   0.965       .  S
O1539     Zr1549   2.384       .  S
O1540     Zr1549   2.391       .  S
O1540      H1565   0.966       .  S
C1541      C2324   1.485       .  S
C1542      C2688   1.482   1_556  S
C1543      C3136   1.488       .  S
O1544      H1580   0.990       .  S
O1545      C1547   1.287       .  A
O1546      C1547   1.287       .  A
C1547      C2352   1.502       .  S
O1548     Zr1549   2.440       .  S
O1548      H1577   0.990       .  S
Zr1549     O1552   2.438       .  S
Zr1549     O1553   2.438       .  S
Zr1549     O1554   2.392       .  S
O1550      C1555   1.289       .  A
O1551      H1568   0.990       .  S
O1551      H1583   0.990       .  S
O1552      H1569   0.990       .  S
O1553      H1573   0.990       .  S
O1553      H1582   0.990       .  S
O1554      C1555   1.277       .  A
C1555      C2313   1.486       .  S
O1556      H1575   0.991       .  S
O1556      H1579   0.989       .  S
O1557      H1571   0.990       .  S
O1557      H1578   0.990   1_556  S
O1558      C1562   1.292       .  A
O1559      C1562   1.281       .  A
O1560      H1570   0.990       .  S
O1561      H1574   0.990       .  S
C1562      C3321   1.475       .  S
Zr1585     O1586   2.441       .  S
Zr1585     O1587   2.458       .  S
Zr1585     O1588   2.459       .  S
Zr1585     O1591   2.468       .  S
Zr1585     O1593   2.392       .  S
Zr1585     O1594   2.380       .  S
Zr1585     O1595   2.418       .  S
Zr1585     O1596   2.396       .  S
O1586      H1642   0.990       .  S
O1586      H1650   0.990       .  S
O1587      C1607   1.288       .  A
O1588      C1609   1.289       .  A
O1589     Zr1599   2.412       .  S
O1589      C1608   1.281       .  A
O1590     Zr1598   2.410       .  S
O1590      C1609   1.281       .  A
O1591      C1608   1.290       .  A
O1592     Zr1600   2.400       .  S
O1592      C1607   1.277       .  A
O1593     Zr1598   2.403       .  S
O1593     Zr1600   2.371       .  S
O1594     Zr1599   2.392       .  S
O1594     Zr1600   2.390       .  S
O1594      H1629   0.965       .  S
O1595     Zr1598   2.414       .  S
O1595     Zr1615   2.385       .  S
O1595      H1632   0.964       .  S
O1596     Zr1599   2.380       .  S
O1596     Zr1615   2.381       .  S
Zr1597     O1622   2.441       .  S
Zr1597     O1616   2.460       .  S
Zr1597     O1624   2.469       .  S
Zr1597     O1612   2.435       .  S
Zr1597     O1603   2.380       .  S
Zr1597     O1604   2.418       .  S
Zr1597     O1605   2.376       .  S
Zr1597     O1606   2.392       .  S
Zr1598     O1617   2.435       .  S
Zr1598     O1610   2.435       .  S
Zr1598     O1611   2.449       .  S
Zr1598     O1604   2.390       .  S
Zr1598     O1605   2.387       .  S
Zr1599     O1601   2.436       .  S
Zr1599     O1623   2.442       .  S
Zr1599     O1625   2.404       .  S
Zr1599     O1603   2.369       .  S
Zr1599     O1606   2.399       .  S
Zr1600     O1626   2.434       .  S
Zr1600     O1627   2.434       .  S
Zr1600     O1602   2.438       .  S
Zr1600     O1603   2.369       .  S
Zr1600     O1604   2.400       .  S
O1601      H1638   0.990       .  S
O1602      H1633   0.990       .  S
O1602      H1647   0.990       .  S
O1604      H1630   0.965       .  S
O1605     Zr1615   2.381       .  S
O1606     Zr1615   2.395       .  S
O1606      H1631   0.966       .  S
C1607      C2268   1.485       .  S
C1608      C3097   1.489       .  S
C1609      C2649   1.484       .  S
O1610      H1646   0.990       .  S
O1611      C1613   1.287       .  A
O1612      C1613   1.285       .  A
C1613      C2299   1.499       .  S
O1614     Zr1615   2.441       .  S
O1614      H1643   0.991       .  S
Zr1615     O1618   2.439       .  S
Zr1615     O1619   2.440       .  S
Zr1615     O1620   2.398       .  S
O1616      C1621   1.288       .  A
O1617      H1634   0.990       .  S
O1617      H1649   0.990       .  S
O1618      H1635   0.990       .  S
O1619      H1639   0.990       .  S
O1619      H1648   0.990       .  S
O1620      C1621   1.278       .  A
C1621      C2282   1.489       .  S
O1622      H1641   0.991       .  S
O1622      H1645   0.989       .  S
O1623      H1637   0.990       .  S
O1623      H1644   0.990       .  S
O1624      C1628   1.290       .  A
O1625      C1628   1.280       .  A
O1626      H1636   0.990       .  S
O1627      H1640   0.990       .  S
C1628      C2915   1.472       .  S
Zr1651     O1652   2.437       .  S
Zr1651     O1653   2.454       .  S
Zr1651     O1654   2.465       .  S
Zr1651     O1657   2.466       .  S
Zr1651     O1659   2.391   1_554  S
Zr1651     O1660   2.384       .  S
Zr1651     O1661   2.415   1_554  S
Zr1651     O1662   2.398   1_554  S
O1652      H1708   0.990       .  S
O1652      H1716   0.990       .  S
O1653      C1673   1.286       .  A
O1654      C1675   1.289   1_554  A
O1655     Zr1665   2.417       .  S
O1655      C1674   1.282   1_556  A
O1656     Zr1664   2.411       .  S
O1656      C1675   1.282       .  A
O1657      C1674   1.290       .  A
O1658     Zr1666   2.404       .  S
O1658      C1673   1.279       .  A
O1659     Zr1664   2.405       .  S
O1659     Zr1666   2.379   1_556  S
O1660     Zr1665   2.392   1_554  S
O1660     Zr1666   2.387       .  S
O1660      H1695   0.965       .  S
O1661     Zr1664   2.408       .  S
O1661     Zr1681   2.385       .  S
O1661      H1698   0.964       .  S
O1662     Zr1665   2.376       .  S
O1662     Zr1681   2.378       .  S
Zr1663     O1688   2.445       .  S
Zr1663     O1682   2.453       .  S
Zr1663     O1690   2.465       .  S
Zr1663     O1678   2.430       .  S
Zr1663     O1669   2.387       .  S
Zr1663     O1670   2.420       .  S
Zr1663     O1671   2.373       .  S
Zr1663     O1672   2.392       .  S
Zr1664     O1683   2.436       .  S
Zr1664     O1676   2.434       .  S
Zr1664     O1677   2.446       .  S
Zr1664     O1670   2.391       .  S
Zr1664     O1671   2.382       .  S
Zr1665     O1667   2.436       .  S
Zr1665     O1689   2.440   1_556  S
Zr1665     O1691   2.409       .  S
Zr1665     O1669   2.376       .  S
Zr1665     O1672   2.397       .  S
Zr1666     O1692   2.435       .  S
Zr1666     O1693   2.436   1_554  S
Zr1666     O1668   2.436       .  S
Zr1666     O1669   2.373   1_554  S
Zr1666     O1670   2.394   1_554  S
O1667      H1704   0.990       .  S
O1668      H1699   0.990       .  S
O1668      H1713   0.990       .  S
O1670      H1696   0.965       .  S
O1671     Zr1681   2.380       .  S
O1672     Zr1681   2.391       .  S
O1672      H1697   0.966       .  S
C1673      C2285   1.492       .  S
C1674      C3153   1.489       .  S
C1675      C2705   1.493       .  S
O1676      H1712   0.990       .  S
O1677      C1679   1.287       .  A
O1678      C1679   1.284       .  A
C1679      C2254   1.492       .  S
O1680     Zr1681   2.439       .  S
O1680      H1709   0.990       .  S
Zr1681     O1684   2.439       .  S
Zr1681     O1685   2.439       .  S
Zr1681     O1686   2.390       .  S
O1682      C1687   1.287       .  A
O1683      H1700   0.990       .  S
O1683      H1715   0.990       .  S
O1684      H1701   0.990       .  S
O1685      H1705   0.990       .  S
O1685      H1714   0.990       .  S
O1686      C1687   1.275       .  A
C1687      C2271   1.479       .  S
O1688      H1707   0.990       .  S
O1688      H1711   0.991       .  S
O1689      H1703   0.990   1_554  S
O1689      H1710   0.990       .  S
O1690      C1694   1.287       .  A
O1691      C1694   1.281       .  A
O1692      H1702   0.990       .  S
O1693      H1706   0.990       .  S
C1694      C2873   1.464       .  S
Zr1717     O1718   2.443       .  S
Zr1717     O1719   2.456       .  S
Zr1717     O1720   2.454       .  S
Zr1717     O1723   2.465       .  S
Zr1717     O1725   2.396       .  S
Zr1717     O1726   2.383       .  S
Zr1717     O1727   2.415       .  S
Zr1717     O1728   2.398       .  S
O1718      H1774   0.990       .  S
O1718      H1782   0.991       .  S
O1719      C1739   1.287       .  A
O1720      C1741   1.288       .  A
O1721     Zr1731   2.411       .  S
O1721      C1740   1.281       .  A
O1722     Zr1730   2.408       .  S
O1722      C1741   1.280       .  A
O1723      C1740   1.290       .  A
O1724     Zr1732   2.397       .  S
O1724      C1739   1.278       .  A
O1725     Zr1730   2.402       .  S
O1725     Zr1732   2.378       .  S
O1726     Zr1731   2.389       .  S
O1726     Zr1732   2.386       .  S
O1726      H1761   0.965       .  S
O1727     Zr1730   2.409       .  S
O1727     Zr1747   2.381       .  S
O1727      H1764   0.964       .  S
O1728     Zr1731   2.376       .  S
O1728     Zr1747   2.379       .  S
Zr1729     O1754   2.440       .  S
Zr1729     O1748   2.467       .  S
Zr1729     O1756   2.489       .  S
Zr1729     O1744   2.448       .  S
Zr1729     O1735   2.388       .  S
Zr1729     O1736   2.421       .  S
Zr1729     O1737   2.378       .  S
Zr1729     O1738   2.394       .  S
Zr1730     O1749   2.438       .  S
Zr1730     O1742   2.434       .  S
Zr1730     O1743   2.441       .  S
Zr1730     O1736   2.394       .  S
Zr1730     O1737   2.383       .  S
Zr1731     O1733   2.436       .  S
Zr1731     O1755   2.440       .  S
Zr1731     O1757   2.390       .  S
Zr1731     O1735   2.376       .  S
Zr1731     O1738   2.395       .  S
Zr1732     O1758   2.434       .  S
Zr1732     O1759   2.434       .  S
Zr1732     O1734   2.437       .  S
Zr1732     O1735   2.372       .  S
Zr1732     O1736   2.395       .  S
O1733      H1770   0.990       .  S
O1734      H1765   0.990       .  S
O1734      H1779   0.990       .  S
O1736      H1762   0.965       .  S
O1737     Zr1747   2.379       .  S
O1738     Zr1747   2.390       .  S
O1738      H1763   0.966       .  S
C1739      C2229   1.488   1_554  S
C1740      C2212   1.485       .  S
C1741      C2509   1.485       .  S
O1742      H1778   0.990       .  S
O1743      C1745   1.286       .  A
O1744      C1745   1.287       .  A
C1745      C2296   1.500       .  S
O1746     Zr1747   2.439       .  S
O1746      H1775   0.990       .  S
Zr1747     O1750   2.439       .  S
Zr1747     O1751   2.439       .  S
Zr1747     O1752   2.392       .  S
O1748      C1753   1.290       .  A
O1749      H1766   0.990       .  S
O1749      H1781   0.990       .  S
O1750      H1767   0.990       .  S
O1751      H1771   0.990       .  S
O1751      H1780   0.990       .  S
O1752      C1753   1.277       .  A
C1753      C2240   1.496       .  S
O1754      H1773   0.990       .  S
O1754      H1777   0.990       .  S
O1755      H1769   0.990       .  S
O1755      H1776   0.990       .  S
O1756      C1760   1.293       .  A
O1757      C1760   1.278       .  A
O1758      H1768   0.990       .  S
O1759      H1772   0.990       .  S
C1760      C2800   1.478       .  S
Zr1783     O1784   2.441       .  S
Zr1783     O1785   2.466       .  S
Zr1783     O1786   2.456       .  S
Zr1783     O1789   2.454       .  S
Zr1783     O1791   2.392       .  S
Zr1783     O1792   2.383       .  S
Zr1783     O1793   2.421       .  S
Zr1783     O1794   2.401       .  S
O1784      H1840   0.990       .  S
O1784      H1848   0.990       .  S
O1785      C1805   1.289       .  A
O1786      C1807   1.287       .  A
O1787     Zr1797   2.424       .  S
O1787      C1806   1.282       .  A
O1788     Zr1796   2.408       .  S
O1788      C1807   1.281       .  A
O1789      C1806   1.288       .  A
O1790     Zr1798   2.398       .  S
O1790      C1805   1.278       .  A
O1791     Zr1796   2.404       .  S
O1791     Zr1798   2.377       .  S
O1792     Zr1797   2.380       .  S
O1792     Zr1798   2.387       .  S
O1792      H1827   0.965       .  S
O1793     Zr1796   2.407       .  S
O1793     Zr1813   2.393       .  S
O1793      H1830   0.965       .  S
O1794     Zr1797   2.377       .  S
O1794     Zr1813   2.382       .  S
Zr1795     O1820   2.442       .  S
Zr1795     O1814   2.457       .  S
Zr1795     O1822   2.449       .  S
Zr1795     O1810   2.433       .  S
Zr1795     O1801   2.391       .  S
Zr1795     O1802   2.417       .  S
Zr1795     O1803   2.375       .  S
Zr1795     O1804   2.392       .  S
Zr1796     O1815   2.437       .  S
Zr1796     O1808   2.435       .  S
Zr1796     O1809   2.443       .  S
Zr1796     O1802   2.392       .  S
Zr1796     O1803   2.388       .  S
Zr1797     O1799   2.436       .  S
Zr1797     O1821   2.443       .  S
Zr1797     O1823   2.400       .  S
Zr1797     O1801   2.379       .  S
Zr1797     O1804   2.399       .  S
Zr1798     O1824   2.434       .  S
Zr1798     O1825   2.437       .  S
Zr1798     O1800   2.437       .  S
Zr1798     O1801   2.373       .  S
Zr1798     O1802   2.393       .  S
O1799      H1836   0.990       .  S
O1800      H1831   0.990       .  S
O1800      H1845   0.990       .  S
O1802      H1828   0.965       .  S
O1803     Zr1813   2.381       .  S
O1804     Zr1813   2.387       .  S
O1804      H1829   0.966       .  S
C1805      C2243   1.490       .  S
C1806      C2198   1.484       .  S
C1807      C2467   1.486       .  S
O1808      H1844   0.990       .  S
O1809      C1811   1.285       .  A
O1810      C1811   1.284       .  A
C1811      C2257   1.495       .  S
O1812     Zr1813   2.439       .  S
O1812      H1841   0.990       .  S
Zr1813     O1816   2.437       .  S
Zr1813     O1817   2.441       .  S
Zr1813     O1818   2.400       .  S
O1814      C1819   1.287       .  A
O1815      H1832   0.990       .  S
O1815      H1847   0.990       .  S
O1816      H1833   0.990       .  S
O1817      H1837   0.990       .  S
O1817      H1846   0.990       .  S
O1818      C1819   1.278       .  A
C1819      C2226   1.489       .  S
O1820      H1839   0.991       .  S
O1820      H1843   0.990       .  S
O1821      H1835   0.990       .  S
O1821      H1842   0.990       .  S
O1822      C1826   1.286       .  A
O1823      C1826   1.279       .  A
O1824      H1834   0.990       .  S
O1825      H1838   0.990       .  S
C1826      C2758   1.461       .  S
Zr1849     O1850   2.442   1_554  S
Zr1849     O1851   2.454   1_554  S
Zr1849     O1852   2.461       .  S
Zr1849     O1855   2.431   1_554  S
Zr1849     O1857   2.389       .  S
Zr1849     O1858   2.390   1_554  S
Zr1849     O1859   2.430       .  S
Zr1849     O1860   2.417       .  S
O1850      H1906   0.990       .  S
O1850      H1914   0.991       .  S
O1851      C1871   1.287       .  A
O1852      C1873   1.282       .  A
O1853     Zr1863   2.446       .  S
O1853      C1872   1.286   1_554  A
O1854     Zr1862   2.414       .  S
O1854      C1873   1.274       .  A
O1855      C1872   1.284       .  A
O1856     Zr1864   2.386       .  S
O1856      C1871   1.274       .  A
O1857     Zr1862   2.403       .  S
O1857     Zr1864   2.386   1_554  S
O1858     Zr1863   2.393   1_556  S
O1858     Zr1864   2.374       .  S
O1858      H1893   0.966       .  S
O1859     Zr1862   2.398       .  S
O1859     Zr1879   2.375       .  S
O1859      H1896   0.964       .  S
O1860     Zr1863   2.390       .  S
O1860     Zr1879   2.393       .  S
Zr1861     O1886   2.439       .  S
Zr1861     O1880   2.455       .  S
Zr1861     O1888   2.468       .  S
Zr1861     O1876   2.461       .  S
Zr1861     O1867   2.405       .  S
Zr1861     O1868   2.417       .  S
Zr1861     O1869   2.380       .  S
Zr1861     O1870   2.397       .  S
Zr1862     O1881   2.433       .  S
Zr1862     O1874   2.435       .  S
Zr1862     O1875   2.418       .  S
Zr1862     O1868   2.397       .  S
Zr1862     O1869   2.392       .  S
Zr1863     O1865   2.435       .  S
Zr1863     O1887   2.438       .  S
Zr1863     O1889   2.432       .  S
Zr1863     O1867   2.393       .  S
Zr1863     O1870   2.400       .  S
Zr1864     O1890   2.438       .  S
Zr1864     O1891   2.435   1_556  S
Zr1864     O1866   2.439       .  S
Zr1864     O1867   2.380   1_556  S
Zr1864     O1868   2.376   1_556  S
O1865      H1902   0.990       .  S
O1866      H1897   0.990       .  S
O1866      H1911   0.990       .  S
O1868      H1894   0.963       .  S
O1869     Zr1879   2.392       .  S
O1870     Zr1879   2.375       .  S
O1870      H1895   0.966       .  S
C1871      C2156   1.479       .  S
C1872      C2184   1.483       .  S
C1873      C3125   1.499       .  S
O1874      H1910   0.990       .  S
O1875      C1877   1.282       .  A
O1876      C1877   1.289       .  A
C1877      C2369   1.483       .  S
O1878     Zr1879   2.437       .  S
O1878      H1907   0.990       .  S
Zr1879     O1882   2.436       .  S
Zr1879     O1883   2.438       .  S
Zr1879     O1884   2.392       .  S
O1880      C1885   1.287       .  A
O1881      H1898   0.990       .  S
O1881      H1913   0.990       .  S
O1882      H1899   0.989       .  S
O1883      H1903   0.990       .  S
O1883      H1912   0.990       .  S
O1884      C1885   1.276       .  A
C1885      C2170   1.483       .  S
O1886      H1905   0.990       .  S
O1886      H1909   0.990       .  S
O1887      H1901   0.990       .  S
O1887      H1908   0.990   1_554  S
O1888      C1892   1.290       .  A
O1889      C1892   1.287       .  A
O1890      H1900   0.990       .  S
O1891      H1904   0.990       .  S
C1892      C2215   1.505       .  S
Zr1915     O1916   2.442       .  S
Zr1915     O1917   2.458       .  S
Zr1915     O1918   2.469       .  S
Zr1915     O1921   2.432       .  S
Zr1915     O1923   2.388       .  S
Zr1915     O1924   2.396       .  S
Zr1915     O1925   2.425       .  S
Zr1915     O1926   2.412       .  S
O1916      H1972   0.990       .  S
O1916      H1980   0.991       .  S
O1917      C1937   1.288       .  A
O1918      C1939   1.285       .  A
O1919     Zr1929   2.438       .  S
O1919      C1938   1.285       .  A
O1920     Zr1928   2.410       .  S
O1920      C1939   1.274       .  A
O1921      C1938   1.285       .  A
O1922     Zr1930   2.395       .  S
O1922      C1937   1.276       .  A
O1923     Zr1928   2.401       .  S
O1923     Zr1930   2.383       .  S
O1924     Zr1929   2.394       .  S
O1924     Zr1930   2.379       .  S
O1924      H1959   0.966       .  S
O1925     Zr1928   2.399       .  S
O1925     Zr1945   2.376       .  S
O1925      H1962   0.964       .  S
O1926     Zr1929   2.388       .  S
O1926     Zr1945   2.385       .  S
Zr1927     O1952   2.441       .  S
Zr1927     O1946   2.458       .  S
Zr1927     O1954   2.460       .  S
Zr1927     O1942   2.451       .  S
Zr1927     O1933   2.402       .  S
Zr1927     O1934   2.419       .  S
Zr1927     O1935   2.374       .  S
Zr1927     O1936   2.396       .  S
Zr1928     O1947   2.436       .  S
Zr1928     O1940   2.435       .  S
Zr1928     O1941   2.407       .  S
Zr1928     O1934   2.396       .  S
Zr1928     O1935   2.385       .  S
Zr1929     O1931   2.436       .  S
Zr1929     O1953   2.438       .  S
Zr1929     O1955   2.422       .  S
Zr1929     O1933   2.388       .  S
Zr1929     O1936   2.400       .  S
Zr1930     O1956   2.435       .  S
Zr1930     O1957   2.436       .  S
Zr1930     O1932   2.439       .  S
Zr1930     O1933   2.381       .  S
Zr1930     O1934   2.378       .  S
O1931      H1968   0.990       .  S
O1932      H1963   0.990       .  S
O1932      H1977   0.990       .  S
O1934      H1960   0.964       .  S
O1935     Zr1945   2.386       .  S
O1936     Zr1945   2.379       .  S
O1936      H1961   0.966       .  S
C1937      C2173   1.483       .  S
C1938      C2142   1.481       .  S
C1939      C3066   1.498       .  S
O1940      H1976   0.990       .  S
O1941      C1943   1.279       .  A
O1942      C1943   1.287       .  A
C1943      C2338   1.475       .  S
O1944     Zr1945   2.437       .  S
O1944      H1973   0.990       .  S
Zr1945     O1948   2.438       .  S
Zr1945     O1949   2.438       .  S
Zr1945     O1950   2.383       .  S
O1946      C1951   1.288       .  A
O1947      H1964   0.990       .  S
O1947      H1979   0.989       .  S
O1948      H1965   0.990       .  S
O1949      H1969   0.990       .  S
O1949      H1978   0.990       .  S
O1950      C1951   1.274       .  A
C1951      C2159   1.482       .  S
O1952      H1971   0.991       .  S
O1952      H1975   0.990       .  S
O1953      H1967   0.990       .  S
O1953      H1974   0.990       .  S
O1954      C1958   1.290       .  A
O1955      C1958   1.284       .  A
O1956      H1966   0.990       .  S
O1957      H1970   0.991       .  S
C1958      C2201   1.496       .  S
Zr1981     O1982   2.440       .  S
Zr1981     O1983   2.459       .  S
Zr1981     O1984   2.476       .  S
Zr1981     O1987   2.441       .  S
Zr1981     O1989   2.391       .  S
Zr1981     O1990   2.392       .  S
Zr1981     O1991   2.428       .  S
Zr1981     O1992   2.417       .  S
O1982      H2038   0.990       .  S
O1982      H2046   0.990       .  S
O1983      C2003   1.288       .  A
O1984      C2005   1.286       .  A
O1985     Zr1995   2.436       .  S
O1985      C2004   1.286       .  A
O1986     Zr1994   2.412       .  S
O1986      C2005   1.274       .  A
O1987      C2004   1.286       .  A
O1988     Zr1996   2.387       .  S
O1988      C2003   1.275       .  A
O1989     Zr1994   2.402       .  S
O1989     Zr1996   2.385       .  S
O1990     Zr1995   2.387       .  S
O1990     Zr1996   2.374       .  S
O1990      H2025   0.965       .  S
O1991     Zr1994   2.401       .  S
O1991     Zr2011   2.373       .  S
O1991      H2028   0.964       .  S
O1992     Zr1995   2.392       .  S
O1992     Zr2011   2.393       .  S
Zr1993     O2018   2.441       .  S
Zr1993     O2012   2.456       .  S
Zr1993     O2020   2.447       .  S
Zr1993     O2008   2.463       .  S
Zr1993     O1999   2.406       .  S
Zr1993     O2000   2.415       .  S
Zr1993     O2001   2.374       .  S
Zr1993     O2002   2.393       .  S
Zr1994     O2013   2.435       .  S
Zr1994     O2006   2.434       .  S
Zr1994     O2007   2.418       .  S
Zr1994     O2000   2.396       .  S
Zr1994     O2001   2.392       .  S
Zr1995     O1997   2.436       .  S
Zr1995     O2019   2.439       .  S
Zr1995     O2021   2.429       .  S
Zr1995     O1999   2.387       .  S
Zr1995     O2002   2.399       .  S
Zr1996     O2022   2.435       .  S
Zr1996     O2023   2.435       .  S
Zr1996     O1998   2.437       .  S
Zr1996     O1999   2.382       .  S
Zr1996     O2000   2.368       .  S
O1997      H2034   0.990       .  S
O1998      H2029   0.990       .  S
O1998      H2043   0.990       .  S
O2000      H2026   0.963       .  S
O2001     Zr2011   2.390       .  S
O2002     Zr2011   2.376       .  S
O2002      H2027   0.965       .  S
C2003      C2114   1.481       .  S
C2004      C2145   1.496       .  S
C2005      C3010   1.502       .  S
O2006      H2042   0.990       .  S
O2007      C2009   1.282       .  A
O2008      C2009   1.289       .  A
C2009      C3279   1.486       .  S
O2010     Zr2011   2.438       .  S
O2010      H2039   0.990       .  S
Zr2011     O2014   2.437       .  S
Zr2011     O2015   2.440       .  S
Zr2011     O2016   2.393       .  S
O2012      C2017   1.286       .  A
O2013      H2030   0.990       .  S
O2013      H2045   0.990       .  S
O2014      H2031   0.990       .  S
O2015      H2035   0.990       .  S
O2015      H2044   0.990       .  S
O2016      C2017   1.277       .  A
C2017      C2128   1.492       .  S
O2018      H2037   0.990       .  S
O2018      H2041   0.989       .  S
O2019      H2033   0.990       .  S
O2019      H2040   0.990       .  S
O2020      C2024   1.288       .  A
O2021      C2024   1.284       .  A
O2022      H2032   0.989       .  S
O2023      H2036   0.991       .  S
C2024      C2831   1.500       .  S
Zr2047     O2048   2.443       .  S
Zr2047     O2049   2.445       .  S
Zr2047     O2050   2.481       .  S
Zr2047     O2053   2.432       .  S
Zr2047     O2055   2.413       .  S
Zr2047     O2056   2.380       .  S
Zr2047     O2057   2.321       .  S
Zr2047     O2058   2.420       .  S
O2048      H2104   0.990       .  S
O2048      H2112   0.990       .  S
O2049      C2069   1.285       .  A
O2050      C2071   1.290       .  A
O2051     Zr2061   2.443       .  S
O2051      C2070   1.285       .  A
O2052     Zr2060   2.364       .  S
O2052      C2071   1.267       .  A
O2053      C2070   1.285       .  A
O2054     Zr2062   2.397       .  S
O2054      C2069   1.277       .  A
O2055     Zr2060   2.393       .  S
O2055     Zr2062   2.416       .  S
O2056     Zr2061   2.401       .  S
O2056     Zr2062   2.394       .  S
O2056      H2091   0.966       .  S
O2057     Zr2060   2.327       .  S
O2057     Zr2077   2.357       .  S
O2057      H2094   0.960       .  S
O2058     Zr2061   2.426       .  S
O2058     Zr2077   2.417       .  S
Zr2059     O2084   2.444       .  S
Zr2059     O2078   2.466       .  S
Zr2059     O2086   2.443       .  S
Zr2059     O2074   2.450       .  S
Zr2059     O2065   2.419       .  S
Zr2059     O2066   2.437       .  S
Zr2059     O2067   2.406       .  S
Zr2059     O2068   2.411       .  S
Zr2060     O2079   2.443       .  S
Zr2060     O2072   2.434       .  S
Zr2060     O2073   2.392       .  S
Zr2060     O2066   2.373       .  S
Zr2060     O2067   2.414       .  S
Zr2061     O2063   2.436       .  S
Zr2061     O2085   2.440       .  S
Zr2061     O2087   2.437       .  S
Zr2061     O2065   2.405       .  S
Zr2061     O2068   2.416       .  S
Zr2062     O2088   2.435       .  S
Zr2062     O2089   2.434       .  S
Zr2062     O2064   2.438       .  S
Zr2062     O2065   2.397       .  S
Zr2062     O2066   2.414       .  S
O2063      H2100   0.990       .  S
O2064      H2095   0.990       .  S
O2064      H2109   0.990       .  S
O2066      H2092   0.965       .  S
O2067     Zr2077   2.418       .  S
O2068     Zr2077   2.372       .  S
O2068      H2093   0.966       .  S
C2069      C2131   1.482   1_556  S
C2070      C2187   1.503       .  S
C2071      C2985   1.495       .  S
O2072      H2108   0.990       .  S
O2073      C2075   1.273       .  A
O2074      C2075   1.283       .  A
C2075      C3237   1.469       .  S
O2076     Zr2077   2.436       .  S
O2076      H2105   0.990       .  S
Zr2077     O2080   2.424       .  S
Zr2077     O2081   2.439       .  S
Zr2077     O2082   2.385       .  S
O2078      C2083   1.289       .  A
O2079      H2096   0.990       .  S
O2079      H2111   0.989       .  S
O2080      H2097   0.990       .  S
O2081      H2101   0.990       .  S
O2081      H2110   0.989       .  S
O2082      C2083   1.274       .  A
C2083      C2117   1.482       .  S
O2084      H2103   0.991       .  S
O2084      H2107   0.990       .  S
O2085      H2099   0.990       .  S
O2085      H2106   0.990       .  S
O2086      C2090   1.287       .  A
O2087      C2090   1.286       .  A
O2088      H2098   0.990       .  S
O2089      H2102   0.990       .  S
C2090      C2789   1.495       .  S
C2113      C2114   1.402       .  A
C2113      C2118   1.404       .  A
C2113      H2120   1.084       .  S
C2114      C2115   1.417       .  A
C2115      C2116   1.405       .  A
C2115      N2122   1.438       .  S
C2116      C2117   1.401       .  A
C2116      H2121   1.084       .  S
C2117      C2118   1.416       .  A
C2118      N2119   1.438       .  S
N2119      H2123   1.046       .  S
N2119      H2124   1.046       .  S
N2122      H2125   1.046       .  S
N2122      H2126   1.046       .  S
C2127      C2128   1.412       .  A
C2127      C2132   1.399       .  A
C2127      H2134   1.084       .  S
C2128      C2129   1.418       .  A
C2129      C2130   1.397       .  A
C2129      N2136   1.432       .  S
C2130      C2131   1.406       .  A
C2130      H2135   1.084       .  S
C2131      C2132   1.413       .  A
C2132      N2133   1.433       .  S
N2133      H2137   1.045       .  S
N2133      H2138   1.046       .  S
N2136      H2139   1.045       .  S
N2136      H2140   1.045       .  S
C2141      C2142   1.402       .  A
C2141      C2146   1.405       .  A
C2141      H2148   1.084       .  S
C2142      C2143   1.410       .  A
C2143      C2144   1.408       .  A
C2143      N2150   1.438       .  S
C2144      C2145   1.409       .  A
C2144      H2149   1.083       .  S
C2145      C2146   1.418       .  A
C2146      N2147   1.437       .  S
N2147      H2151   1.046       .  S
N2147      H2152   1.046       .  S
N2150      H2153   1.046       .  S
N2150      H2154   1.046       .  S
C2155      C2156   1.400       .  A
C2155      C2160   1.401       .  A
C2155      H2162   1.084       .  S
C2156      C2157   1.414       .  A
C2157      C2158   1.402       .  A
C2157      N2164   1.433       .  S
C2158      C2159   1.402       .  A
C2158      H2163   1.084       .  S
C2159      C2160   1.416       .  A
C2160      N2161   1.433       .  S
N2161      H2165   1.046       .  S
N2161      H2166   1.046       .  S
N2164      H2167   1.046       .  S
N2164      H2168   1.046       .  S
C2169      C2170   1.400       .  A
C2169      C2174   1.404       .  A
C2169      H2176   1.084       .  S
C2170      C2171   1.417       .  A
C2171      C2172   1.405       .  A
C2171      N2178   1.438       .  S
C2172      C2173   1.401       .  A
C2172      H2177   1.084       .  S
C2173      C2174   1.418       .  A
C2174      N2175   1.439       .  S
N2175      H2179   1.046       .  S
N2175      H2180   1.046       .  S
N2178      H2181   1.046       .  S
N2178      H2182   1.046       .  S
C2183      C2184   1.402       .  A
C2183      C2188   1.410       .  A
C2183      H2190   1.084       .  S
C2184      C2185   1.416       .  A
C2185      C2186   1.403       .  A
C2185      N2192   1.440   1_556  S
C2186      C2187   1.410       .  A
C2186      H2191   1.083       .  S
C2187      C2188   1.421       .  A
C2188      N2189   1.437       .  S
N2189      H2193   1.046       .  S
N2189      H2194   1.045       .  S
N2192      H2195   1.042       .  S
N2192      H2196   1.046       .  S
C2197      C2198   1.403       .  A
C2197      C2202   1.407   1_565  A
C2197      H2204   1.084       .  S
C2198      C2199   1.412       .  A
C2199      C2200   1.405   1_565  A
C2199      N2206   1.439       .  S
C2200      C2201   1.409       .  A
C2200      H2205   1.083       .  S
C2201      C2202   1.415       .  A
C2202      N2203   1.431       .  S
N2203      H2207   1.046       .  S
N2203      H2208   1.046       .  S
N2206      H2209   1.046       .  S
N2206      H2210   1.046       .  S
C2211      C2212   1.401       .  A
C2211      C2216   1.404   1_565  A
C2211      H2218   1.084       .  S
C2212      C2213   1.411       .  A
C2213      C2214   1.405   1_565  A
C2213      N2220   1.439       .  S
C2214      C2215   1.410       .  A
C2214      H2219   1.083       .  S
C2215      C2216   1.425       .  A
C2216      N2217   1.429       .  S
N2217      H2221   1.043       .  S
N2217      H2222   1.045       .  S
N2220      H2223   1.046       .  S
N2220      H2224   1.045       .  S
C2225      C2226   1.409       .  A
C2225      C2230   1.399       .  A
C2225      H2232   1.084       .  S
C2226      C2227   1.416       .  A
C2227      C2228   1.400       .  A
C2227      N2234   1.432       .  S
C2228      C2229   1.410       .  A
C2228      H2233   1.084       .  S
C2229      C2230   1.416       .  A
C2230      N2231   1.433       .  S
N2231      H2235   1.045       .  S
N2231      H2236   1.046   1_556  S
N2234      H2237   1.045       .  S
N2234      H2238   1.045       .  S
C2239      C2240   1.414       .  A
C2239      C2244   1.407       .  A
C2239      H2246   1.083       .  S
C2240      C2241   1.411       .  A
C2241      C2242   1.406       .  A
C2241      N2248   1.438       .  S
C2242      C2243   1.411       .  A
C2242      H2247   1.083       .  S
C2243      C2244   1.409       .  A
C2244      N2245   1.438       .  S
N2245      H2249   1.046       .  S
N2245      H2250   1.045       .  S
N2248      H2251   1.046       .  S
N2248      H2252   1.046       .  S
C2253      C2254   1.407       .  A
C2253      C2258   1.412       .  A
C2253      H2260   1.083       .  S
C2254      C2255   1.413       .  A
C2255      C2256   1.398       .  A
C2255      N2262   1.433       .  S
C2256      C2257   1.407       .  A
C2256      H2261   1.083       .  S
C2257      C2258   1.417       .  A
C2258      N2259   1.437       .  S
N2259      H2263   1.046       .  S
N2259      H2264   1.046       .  S
N2262      H2265   1.046       .  S
N2262      H2266   1.046       .  S
C2267      C2268   1.404       .  A
C2267      C2272   1.403       .  A
C2267      H2274   1.084       .  S
C2268      C2269   1.416       .  A
C2269      C2270   1.402       .  A
C2269      N2276   1.433       .  S
C2270      C2271   1.401       .  A
C2270      H2275   1.084       .  S
C2271      C2272   1.413       .  A
C2272      N2273   1.433       .  S
N2273      H2277   1.046       .  S
N2273      H2278   1.046       .  S
N2276      H2279   1.046       .  S
N2276      H2280   1.046       .  S
C2281      C2282   1.407       .  A
C2281      C2286   1.398       .  A
C2281      H2288   1.084       .  S
C2282      C2283   1.416       .  A
C2283      C2284   1.401       .  A
C2283      N2290   1.432       .  S
C2284      C2285   1.410       .  A
C2284      H2289   1.084       .  S
C2285      C2286   1.418       .  A
C2286      N2287   1.433       .  S
N2287      H2291   1.045       .  S
N2287      H2292   1.045       .  S
N2290      H2293   1.046       .  S
N2290      H2294   1.044       .  S
C2295      C2296   1.411       .  A
C2295      C2300   1.415       .  A
C2295      H2302   1.083       .  S
C2296      C2297   1.414       .  A
C2297      C2298   1.401       .  A
C2297      N2304   1.432       .  S
C2298      C2299   1.406       .  A
C2298      H2303   1.084       .  S
C2299      C2300   1.417       .  A
C2300      N2301   1.438       .  S
N2301      H2305   1.046       .  S
N2301      H2306   1.046       .  S
N2304      H2307   1.046       .  S
N2304      H2308   1.046       .  S
C2309      C2310   1.409       .  A
C2309      C2314   1.399       .  A
C2309      H2316   1.084       .  S
C2310      C2311   1.416       .  A
C2311      C2312   1.402       .  A
C2311      N2318   1.432       .  S
C2312      C2313   1.409       .  A
C2312      H2317   1.084       .  S
C2313      C2314   1.414       .  A
C2314      N2315   1.432       .  S
N2315      H2319   1.046       .  S
N2315      H2320   1.044       .  S
N2318      H2321   1.045       .  S
N2318      H2322   1.046       .  S
C2323      C2324   1.410       .  A
C2323      C2328   1.400       .  A
C2323      H2330   1.084       .  S
C2324      C2325   1.415       .  A
C2325      C2326   1.398       .  A
C2325      N2332   1.433       .  S
C2326      C2327   1.407       .  A
C2326      H2331   1.084       .  S
C2327      C2328   1.414       .  A
C2328      N2329   1.433       .  S
N2329      H2333   1.046       .  S
N2329      H2334   1.045       .  S
N2332      H2335   1.045       .  S
N2332      H2336   1.046       .  S
C2337      C2338   1.403       .  A
C2337      C2342   1.404       .  A
C2337      H2344   1.084       .  S
C2338      C2339   1.409       .  A
C2339      C2340   1.398       .  A
C2339      N2346   1.433       .  S
C2340      C2341   1.407       .  A
C2340      H2345   1.084       .  S
C2341      C2342   1.416       .  A
C2342      N2343   1.437       .  S
N2343      H2347   1.046       .  S
N2343      H2348   1.046       .  S
N2346      H2349   1.046       .  S
N2346      H2350   1.046       .  S
C2351      C2352   1.412       .  A
C2351      C2356   1.412       .  A
C2351      H2358   1.083       .  S
C2352      C2353   1.420       .  A
C2353      C2354   1.404       .  A
C2353      N2360   1.437       .  S
C2354      C2355   1.400       .  A
C2354      H2359   1.084       .  S
C2355      C2356   1.412       .  A
C2356      N2357   1.438       .  S
N2357      H2361   1.046       .  S
N2357      H2362   1.046       .  S
N2360      H2363   1.045       .  S
N2360      H2364   1.046       .  S
C2365      C2366   1.405       .  A
C2365      C2370   1.408       .  A
C2365      H2372   1.083       .  S
C2366      C2367   1.416       .  A
C2367      C2368   1.402       .  A
C2367      N2374   1.433       .  S
C2368      C2369   1.404       .  A
C2368      H2373   1.084       .  S
C2369      C2370   1.414       .  A
C2370      N2371   1.438       .  S
N2371      H2375   1.045       .  S
N2371      H2376   1.046       .  S
N2374      H2377   1.046       .  S
N2374      H2378   1.046       .  S
C2379      C2380   1.403       .  A
C2379      C2384   1.400       .  A
C2379      H2386   1.084       .  S
C2380      C2381   1.417       .  A
C2381      C2382   1.398       .  A
C2381      N2388   1.433       .  S
C2382      C2383   1.403       .  A
C2382      H2387   1.084       .  S
C2383      C2384   1.419       .  A
C2384      N2385   1.433       .  S
N2385      H2389   1.044   1_556  S
N2385      H2390   1.046   1_556  S
N2388      H2391   1.045       .  S
N2388      H2392   1.044       .  S
C2393      C2394   1.413       .  A
C2393      C2398   1.405       .  A
C2393      H2400   1.083       .  S
C2394      C2395   1.410       .  A
C2395      C2396   1.405       .  A
C2395      N2402   1.438       .  S
C2396      C2397   1.410       .  A
C2396      H2401   1.084       .  S
C2397      C2398   1.407       .  A
C2398      N2399   1.438       .  S
N2399      H2403   1.046       .  S
N2399      H2404   1.046       .  S
N2402      H2405   1.046       .  S
N2402      H2406   1.046       .  S
C2407      C2408   1.407       .  A
C2407      C2412   1.409       .  A
C2407      H2414   1.083       .  S
C2408      C2409   1.413       .  A
C2409      C2410   1.401       .  A
C2409      N2416   1.433       .  S
C2410      C2411   1.407       .  A
C2410      H2415   1.084       .  S
C2411      C2412   1.416       .  A
C2412      N2413   1.438       .  S
N2413      H2417   1.046       .  S
N2413      H2418   1.046       .  S
N2416      H2419   1.046       .  S
N2416      H2420   1.046       .  S
C2421      C2422   1.409       .  A
C2421      C2426   1.399       .  A
C2421      H2428   1.084       .  S
C2422      C2423   1.416       .  A
C2423      C2424   1.402       .  A
C2423      N2430   1.433       .  S
C2424      C2425   1.409       .  A
C2424      H2429   1.084       .  S
C2425      C2426   1.417       .  A
C2426      N2427   1.433       .  S
N2427      H2431   1.045       .  S
N2427      H2432   1.046       .  S
N2430      H2433   1.046       .  S
N2430      H2434   1.045       .  S
C2435      C2436   1.408       .  A
C2435      C2440   1.399       .  A
C2435      H2442   1.084       .  S
C2436      C2437   1.417       .  A
C2437      C2438   1.396       .  A
C2437      N2444   1.433       .  S
C2438      C2439   1.405       .  A
C2438      H2443   1.084       .  S
C2439      C2440   1.415       .  A
C2440      N2441   1.433       .  S
N2441      H2445   1.045       .  S
N2441      H2446   1.046       .  S
N2444      H2447   1.046       .  S
N2444      H2448   1.044       .  S
C2449      C2450   1.409       .  A
C2449      C2454   1.408   1_565  A
C2449      H2456   1.083       .  S
C2450      C2451   1.415       .  A
C2451      C2452   1.403   1_565  A
C2451      N2458   1.439       .  S
C2452      C2453   1.406       .  A
C2452      H2457   1.084       .  S
C2453      C2454   1.412       .  A
C2454      N2455   1.437       .  S
N2455      H2459   1.046       .  S
N2455      H2460   1.045       .  S
N2458      H2461   1.046       .  S
N2458      H2462   1.046   1_565  S
C2463      C2464   1.404       .  A
C2463      C2468   1.403       .  A
C2463      H2470   1.084       .  S
C2464      C2465   1.412       .  A
C2465      C2466   1.402       .  A
C2465      N2472   1.439       .  S
C2466      C2467   1.407       .  A
C2466      H2471   1.083       .  S
C2467      C2468   1.413       .  A
C2468      N2469   1.432       .  S
N2469      H2473   1.046       .  S
N2469      H2474   1.046       .  S
N2472      H2475   1.046       .  S
N2472      H2476   1.046       .  S
C2477      C2478   1.407       .  A
C2477      C2482   1.395       .  A
C2477      H2484   1.083       .  S
C2478      C2479   1.419       .  A
C2479      C2480   1.406       .  A
C2479      N2486   1.438       .  S
C2480      C2481   1.404       .  A
C2480      H2485   1.084       .  S
C2481      C2482   1.409       .  A
C2482      N2483   1.433       .  S
N2483      H2487   1.046       .  S
N2483      H2488   1.046       .  S
N2486      H2489   1.045       .  S
N2486      H2490   1.046       .  S
C2491      C2492   1.406       .  A
C2491      C2496   1.401   1_545  A
C2491      H2498   1.084       .  S
C2492      C2493   1.416       .  A
C2493      C2494   1.413   1_545  A
C2493      N2500   1.437       .  S
C2494      C2495   1.408       .  A
C2494      H2499   1.083       .  S
C2495      C2496   1.412       .  A
C2496      N2497   1.433       .  S
N2497      H2501   1.046       .  S
N2497      H2502   1.046       .  S
N2500      H2503   1.045       .  S
N2500      H2504   1.045       .  S
C2505      C2506   1.401       .  A
C2505      C2510   1.399       .  A
C2505      H2512   1.084       .  S
C2506      C2507   1.412       .  A
C2507      C2508   1.403       .  A
C2507      N2514   1.433       .  S
C2508      C2509   1.406       .  A
C2508      H2513   1.084       .  S
C2509      C2510   1.416       .  A
C2510      N2511   1.433       .  S
N2511      H2515   1.046       .  S
N2511      H2516   1.046       .  S
N2514      H2517   1.046       .  S
N2514      H2518   1.046       .  S
C2519      C2520   1.406       .  A
C2519      C2524   1.397       .  A
C2519      H2526   1.084       .  S
C2520      C2521   1.414       .  A
C2521      C2522   1.397       .  A
C2521      N2528   1.433       .  S
C2522      C2523   1.406       .  A
C2522      H2527   1.084       .  S
C2523      C2524   1.415       .  A
C2524      N2525   1.433       .  S
N2525      H2529   1.046       .  S
N2525      H2530   1.044       .  S
N2528      H2531   1.045       .  S
N2528      H2532   1.046       .  S
C2533      C2534   1.411       .  A
C2533      C2538   1.405       .  A
C2533      H2540   1.083       .  S
C2534      C2535   1.414       .  A
C2535      C2536   1.407       .  A
C2535      N2542   1.438       .  S
C2536      C2537   1.411       .  A
C2536      H2541   1.083       .  S
C2537      C2538   1.413       .  A
C2538      N2539   1.438       .  S
N2539      H2543   1.046       .  S
N2539      H2544   1.046       .  S
N2542      H2545   1.046       .  S
N2542      H2546   1.046       .  S
C2547      C2548   1.409       .  A
C2547      C2552   1.398       .  A
C2547      H2554   1.083       .  S
C2548      C2549   1.422       .  A
C2549      C2550   1.401       .  A
C2549      N2556   1.432       .  S
C2550      C2551   1.406       .  A
C2550      H2555   1.084       .  S
C2551      C2552   1.410       .  A
C2552      N2553   1.433       .  S
N2553      H2557   1.046       .  S
N2553      H2558   1.046       .  S
N2556      H2559   1.045   1_556  S
N2556      H2560   1.045       .  S
C2561      C2562   1.410       .  A
C2561      C2566   1.407       .  A
C2561      H2568   1.083       .  S
C2562      C2563   1.417       .  A
C2563      C2564   1.413       .  A
C2563      N2570   1.437       .  S
C2564      C2565   1.408       .  A
C2564      H2569   1.083       .  S
C2565      C2566   1.417       .  A
C2566      N2567   1.439       .  S
N2567      H2571   1.046       .  S
N2567      H2572   1.046       .  S
N2570      H2573   1.046       .  S
N2570      H2574   1.046       .  S
C2575      C2576   1.409       .  A
C2575      C2580   1.406       .  A
C2575      H2582   1.082       .  S
C2576      C2577   1.418       .  A
C2577      C2578   1.411       .  A
C2577      N2584   1.437       .  S
C2578      C2579   1.407       .  A
C2578      H2583   1.083       .  S
C2579      C2580   1.413       .  A
C2580      N2581   1.438       .  S
N2581      H2585   1.046       .  S
N2581      H2586   1.046       .  S
N2584      H2587   1.046       .  S
N2584      H2588   1.046       .  S
C2589      C2590   1.404       .  A
C2589      C2594   1.404       .  A
C2589      H2596   1.084       .  S
C2590      C2591   1.417       .  A
C2591      C2592   1.402       .  A
C2591      N2598   1.433       .  S
C2592      C2593   1.402       .  A
C2592      H2597   1.084       .  S
C2593      C2594   1.415       .  A
C2594      N2595   1.433       .  S
N2595      H2599   1.046       .  S
N2595      H2600   1.046       .  S
N2598      H2601   1.046       .  S
N2598      H2602   1.046       .  S
C2603      C2604   1.410       .  A
C2603      C2608   1.406       .  A
C2603      H2610   1.084       .  S
C2604      C2605   1.407       .  A
C2605      C2606   1.401       .  A
C2605      N2612   1.438       .  S
C2606      C2607   1.410       .  A
C2606      H2611   1.083       .  S
C2607      C2608   1.410       .  A
C2608      N2609   1.438       .  S
N2609      H2613   1.046       .  S
N2609      H2614   1.046       .  S
N2612      H2615   1.046       .  S
N2612      H2616   1.046       .  S
C2617      C2618   1.408       .  A
C2617      C2622   1.407       .  A
C2617      H2624   1.083       .  S
C2618      C2619   1.418       .  A
C2619      C2620   1.416       .  A
C2619      N2626   1.437       .  S
C2620      C2621   1.409       .  A
C2620      H2625   1.083       .  S
C2621      C2622   1.418       .  A
C2622      N2623   1.438       .  S
N2623      H2627   1.046       .  S
N2623      H2628   1.045       .  S
N2626      H2629   1.046       .  S
N2626      H2630   1.045       .  S
C2631      C2632   1.404       .  A
C2631      C2636   1.400       .  A
C2631      H2638   1.084       .  S
C2632      C2633   1.412       .  A
C2633      C2634   1.412       .  A
C2633      N2640   1.438       .  S
C2634      C2635   1.410       .  A
C2634      H2639   1.083       .  S
C2635      C2636   1.415       .  A
C2636      N2637   1.433       .  S
N2637      H2641   1.046       .  S
N2637      H2642   1.046       .  S
N2640      H2643   1.046       .  S
N2640      H2644   1.046       .  S
C2645      C2646   1.404       .  A
C2645      C2650   1.402       .  A
C2645      H2652   1.084       .  S
C2646      C2647   1.412       .  A
C2647      C2648   1.402       .  A
C2647      N2654   1.433       .  S
C2648      C2649   1.407       .  A
C2648      H2653   1.084       .  S
C2649      C2650   1.412       .  A
C2650      N2651   1.432       .  S
N2651      H2655   1.046       .  S
N2651      H2656   1.046       .  S
N2654      H2657   1.046       .  S
N2654      H2658   1.046       .  S
C2659      C2660   1.405       .  A
C2659      C2664   1.414       .  A
C2659      H2666   1.084       .  S
C2660      C2661   1.412       .  A
C2661      C2662   1.398       .  A
C2661      N2668   1.434       .  S
C2662      C2663   1.410       .  A
C2662      H2667   1.083       .  S
C2663      C2664   1.418       .  A
C2664      N2665   1.437       .  S
N2665      H2669   1.046       .  S
N2665      H2670   1.046       .  S
N2668      H2671   1.044       .  S
N2668      H2672   1.046       .  S
C2673      C2674   1.409       .  A
C2673      C2678   1.406       .  A
C2673      H2680   1.083       .  S
C2674      C2675   1.417       .  A
C2675      C2676   1.412       .  A
C2675      N2682   1.437       .  S
C2676      C2677   1.408       .  A
C2676      H2681   1.083       .  S
C2677      C2678   1.415       .  A
C2678      N2679   1.438       .  S
N2679      H2683   1.046       .  S
N2679      H2684   1.045   1_554  S
N2682      H2685   1.046       .  S
N2682      H2686   1.046       .  S
C2687      C2688   1.405       .  A
C2687      C2692   1.400       .  A
C2687      H2694   1.084       .  S
C2688      C2689   1.412       .  A
C2689      C2690   1.407       .  A
C2689      N2696   1.438   1_554  S
C2690      C2691   1.408       .  A
C2690      H2695   1.083       .  S
C2691      C2692   1.414       .  A
C2692      N2693   1.433       .  S
N2693      H2697   1.046       .  S
N2693      H2698   1.046       .  S
N2696      H2699   1.046       .  S
N2696      H2700   1.046       .  S
C2701      C2702   1.401       .  A
C2701      C2706   1.397       .  A
C2701      H2708   1.084   1_556  S
C2702      C2703   1.410       .  A
C2703      C2704   1.404       .  A
C2703      N2710   1.438       .  S
C2704      C2705   1.410       .  A
C2704      H2709   1.083       .  S
C2705      C2706   1.420       .  A
C2706      N2707   1.429   1_556  S
N2707      H2711   1.045   1_554  S
N2707      H2712   1.043       .  S
N2710      H2713   1.046       .  S
N2710      H2714   1.046       .  S
C2715      C2716   1.411       .  A
C2715      C2720   1.409       .  A
C2715      H2722   1.083       .  S
C2716      C2717   1.414       .  A
C2717      C2718   1.406       .  A
C2717      N2724   1.439       .  S
C2718      C2719   1.411       .  A
C2718      H2723   1.083       .  S
C2719      C2720   1.413       .  A
C2720      N2721   1.438       .  S
N2721      H2725   1.046       .  S
N2721      H2726   1.046       .  S
N2724      H2727   1.046       .  S
N2724      H2728   1.046       .  S
C2729      C2730   1.403       .  A
C2729      C2734   1.402       .  A
C2729      H2736   1.084       .  S
C2730      C2731   1.414       .  A
C2731      C2732   1.401       .  A
C2731      N2738   1.433       .  S
C2732      C2733   1.403       .  A
C2732      H2737   1.084       .  S
C2733      C2734   1.418       .  A
C2734      N2735   1.433       .  S
N2735      H2739   1.046       .  S
N2735      H2740   1.046       .  S
N2738      H2741   1.046       .  S
N2738      H2742   1.046       .  S
C2743      C2744   1.401       .  A
C2743      C2748   1.406       .  A
C2743      H2750   1.084       .  S
C2744      C2745   1.413       .  A
C2745      C2746   1.409       .  A
C2745      N2752   1.438       .  S
C2746      C2747   1.408       .  A
C2746      H2751   1.083       .  S
C2747      C2748   1.421       .  A
C2748      N2749   1.438       .  S
N2749      H2753   1.046       .  S
N2749      H2754   1.046       .  S
N2752      H2755   1.046       .  S
N2752      H2756   1.046       .  S
C2757      C2758   1.394       .  A
C2757      C2762   1.399       .  A
C2757      H2764   1.084       .  S
C2758      C2759   1.417       .  A
C2759      C2760   1.394       .  A
C2759      N2766   1.432       .  S
C2760      C2761   1.395       .  A
C2760      H2765   1.084       .  S
C2761      C2762   1.416       .  A
C2762      N2763   1.436       .  S
N2763      H2767   1.046       .  S
N2763      H2768   1.045       .  S
N2766      H2769   1.045       .  S
N2766      H2770   1.044       .  S
C2771      C2772   1.406       .  A
C2771      C2776   1.400   1_655  A
C2771      H2778   1.084       .  S
C2772      C2773   1.417       .  A
C2773      C2774   1.407   1_655  A
C2773      N2780   1.437       .  S
C2774      C2775   1.404       .  A
C2774      H2779   1.084       .  S
C2775      C2776   1.412       .  A
C2776      N2777   1.439       .  S
N2777      H2781   1.046       .  S
N2777      H2782   1.046       .  S
N2780      H2783   1.045       .  S
N2780      H2784   1.046       .  S
C2785      C2786   1.407       .  A
C2785      C2790   1.406   1_565  A
C2785      H2792   1.084       .  S
C2786      C2787   1.412       .  A
C2787      C2788   1.409   1_565  A
C2787      N2794   1.438       .  S
C2788      C2789   1.409       .  A
C2788      H2793   1.083       .  S
C2789      C2790   1.416       .  A
C2790      N2791   1.439       .  S
N2791      H2795   1.046       .  S
N2791      H2796   1.046       .  S
N2794      H2797   1.046       .  S
N2794      H2798   1.046       .  S
C2799      C2800   1.406       .  A
C2799      C2804   1.417       .  A
C2799      H2806   1.084       .  S
C2800      C2801   1.406       .  A
C2801      C2802   1.397       .  A
C2801      N2808   1.439       .  S
C2802      C2803   1.409       .  A
C2802      H2807   1.081       .  S
C2803      C2804   1.418       .  A
C2804      N2805   1.437       .  S
N2805      H2809   1.046       .  S
N2805      H2810   1.046       .  S
N2808      H2811   1.046       .  S
N2808      H2812   1.046       .  S
C2813      C2814   1.413       .  A
C2813      C2818   1.403   1_455  A
C2813      H2820   1.083       .  S
C2814      C2815   1.416       .  A
C2815      C2816   1.405   1_455  A
C2815      N2822   1.436       .  S
C2816      C2817   1.401       .  A
C2816      H2821   1.084       .  S
C2817      C2818   1.414       .  A
C2818      N2819   1.440       .  S
N2819      H2823   1.046       .  S
N2819      H2824   1.043       .  S
N2822      H2825   1.046       .  S
N2822      H2826   1.046       .  S
C2827      C2828   1.402       .  A
C2827      C2832   1.407   1_565  A
C2827      H2834   1.084       .  S
C2828      C2829   1.417       .  A
C2829      C2830   1.403   1_565  A
C2829      N2836   1.439       .  S
C2830      C2831   1.410       .  A
C2830      H2835   1.083       .  S
C2831      C2832   1.420       .  A
C2832      N2833   1.438       .  S
N2833      H2837   1.046   1_545  S
N2833      H2838   1.045       .  S
N2836      H2839   1.041       .  S
N2836      H2840   1.046       .  S
C2841      C2842   1.412       .  A
C2841      C2846   1.405       .  A
C2841      H2848   1.083       .  S
C2842      C2843   1.414       .  A
C2843      C2844   1.405       .  A
C2843      N2850   1.438       .  S
C2844      C2845   1.411       .  A
C2844      H2849   1.083       .  S
C2845      C2846   1.409       .  A
C2846      N2847   1.438       .  S
N2847      H2851   1.045       .  S
N2847      H2852   1.046       .  S
N2850      H2853   1.046       .  S
N2850      H2854   1.046       .  S
C2855      C2856   1.401       .  A
C2855      C2860   1.402       .  A
C2855      H2862   1.084       .  S
C2856      C2857   1.419       .  A
C2857      C2858   1.407       .  A
C2857      N2864   1.439       .  S
C2858      C2859   1.402       .  A
C2858      H2863   1.083       .  S
C2859      C2860   1.418       .  A
C2860      N2861   1.438       .  S
N2861      H2865   1.046       .  S
N2861      H2866   1.045       .  S
N2864      H2867   1.046       .  S
N2864      H2868   1.046       .  S
C2869      C2870   1.410       .  A
C2869      C2874   1.398       .  A
C2869      H2876   1.085       .  S
C2870      C2871   1.412       .  A
C2871      C2872   1.399       .  A
C2871      N2878   1.438   1_556  S
C2872      C2873   1.405       .  A
C2872      H2877   1.084       .  S
C2873      C2874   1.407       .  A
C2874      N2875   1.438       .  S
N2875      H2879   1.046       .  S
N2875      H2880   1.043       .  S
N2878      H2881   1.041       .  S
N2878      H2882   1.046       .  S
C2883      C2884   1.406       .  A
C2883      C2888   1.404   1_455  A
C2883      H2890   1.084       .  S
C2884      C2885   1.411       .  A
C2885      C2886   1.400   1_455  A
C2885      N2892   1.432       .  S
C2886      C2887   1.403       .  A
C2886      H2891   1.084       .  S
C2887      C2888   1.413       .  A
C2888      N2889   1.438       .  S
N2889      H2893   1.046       .  S
N2889      H2894   1.046       .  S
N2892      H2895   1.046       .  S
N2892      H2896   1.046       .  S
C2897      C2898   1.409       .  A
C2897      C2902   1.402       .  A
C2897      H2904   1.083       .  S
C2898      C2899   1.420       .  A
C2899      C2900   1.409       .  A
C2899      N2906   1.438       .  S
C2900      C2901   1.405       .  A
C2900      H2905   1.083       .  S
C2901      C2902   1.410       .  A
C2902      N2903   1.433       .  S
N2903      H2907   1.046       .  S
N2903      H2908   1.046       .  S
N2906      H2909   1.046       .  S
N2906      H2910   1.046       .  S
C2911      C2912   1.407       .  A
C2911      C2916   1.399       .  A
C2911      H2918   1.083       .  S
C2912      C2913   1.410       .  A
C2913      C2914   1.400       .  A
C2913      N2920   1.438       .  S
C2914      C2915   1.409       .  A
C2914      H2919   1.084       .  S
C2915      C2916   1.411       .  A
C2916      N2917   1.438       .  S
N2917      H2921   1.046       .  S
N2917      H2922   1.041       .  S
N2920      H2923   1.042       .  S
N2920      H2924   1.046       .  S
C2925      C2926   1.406       .  A
C2925      C2930   1.401   1_655  A
C2925      H2932   1.084       .  S
C2926      C2927   1.416       .  A
C2927      C2928   1.409   1_655  A
C2927      N2934   1.437       .  S
C2928      C2929   1.405       .  A
C2928      H2933   1.084       .  S
C2929      C2930   1.413       .  A
C2930      N2931   1.439       .  S
N2931      H2935   1.046       .  S
N2931      H2936   1.046       .  S
N2934      H2937   1.045       .  S
N2934      H2938   1.046       .  S
C2939      C2940   1.412       .  A
C2939      C2944   1.406       .  A
C2939      H2946   1.083       .  S
C2940      C2941   1.410       .  A
C2941      C2942   1.406       .  A
C2941      N2948   1.438       .  S
C2942      C2943   1.411       .  A
C2942      H2947   1.083       .  S
C2943      C2944   1.409       .  A
C2944      N2945   1.438       .  S
N2945      H2949   1.046       .  S
N2945      H2950   1.045       .  S
N2948      H2951   1.046       .  S
N2948      H2952   1.046       .  S
C2953      C2954   1.401       .  A
C2953      C2958   1.401       .  A
C2953      H2960   1.084       .  S
C2954      C2955   1.415       .  A
C2955      C2956   1.403       .  A
C2955      N2962   1.433       .  S
C2956      C2957   1.403       .  A
C2956      H2961   1.084       .  S
C2957      C2958   1.418       .  A
C2958      N2959   1.433       .  S
N2959      H2963   1.046       .  S
N2959      H2964   1.046       .  S
N2962      H2965   1.046       .  S
N2962      H2966   1.046       .  S
C2967      C2968   1.411       .  A
C2967      C2972   1.413       .  A
C2967      H2974   1.083       .  S
C2968      C2969   1.420       .  A
C2969      C2970   1.402       .  A
C2969      N2976   1.438       .  S
C2970      C2971   1.400       .  A
C2970      H2975   1.084       .  S
C2971      C2972   1.411       .  A
C2972      N2973   1.437       .  S
N2973      H2977   1.046       .  S
N2973      H2978   1.045       .  S
N2976      H2979   1.046       .  S
N2976      H2980   1.046       .  S
C2981      C2982   1.387       .  A
C2981      C2986   1.393       .  A
C2981      H2988   1.085       .  S
C2982      C2983   1.410       .  A
C2983      C2984   1.410       .  A
C2983      N2990   1.432       .  S
C2984      C2985   1.405       .  A
C2984      H2989   1.083       .  S
C2985      C2986   1.428       .  A
C2986      N2987   1.433       .  S
N2987      H2991   1.046       .  S
N2987      H2992   1.046       .  S
N2990      H2993   1.045       .  S
N2990      H2994   1.046       .  S
C2995      C2996   1.409       .  A
C2995      C3000   1.402       .  A
C2995      H3002   1.083       .  S
C2996      C2997   1.417       .  A
C2997      C2998   1.405       .  A
C2997      N3004   1.431       .  S
C2998      C2999   1.400       .  A
C2998      H3003   1.084       .  S
C2999      C3000   1.408       .  A
C3000      N3001   1.433       .  S
N3001      H3005   1.046       .  S
N3001      H3006   1.045       .  S
N3004      H3007   1.046       .  S
N3004      H3008   1.046       .  S
C3009      C3010   1.409       .  A
C3009      C3014   1.404       .  A
C3009      H3016   1.083       .  S
C3010      C3011   1.416       .  A
C3011      C3012   1.413       .  A
C3011      N3018   1.432       .  S
C3012      C3013   1.408       .  A
C3012      H3017   1.083       .  S
C3013      C3014   1.413       .  A
C3014      N3015   1.433       .  S
N3015      H3019   1.046       .  S
N3015      H3020   1.046       .  S
N3018      H3021   1.045       .  S
N3018      H3022   1.046       .  S
C3023      C3024   1.408       .  A
C3023      C3028   1.403       .  A
C3023      H3030   1.084       .  S
C3024      C3025   1.417       .  A
C3025      C3026   1.407       .  A
C3025      N3032   1.438       .  S
C3026      C3027   1.406       .  A
C3026      H3031   1.084       .  S
C3027      C3028   1.416       .  A
C3028      N3029   1.432       .  S
N3029      H3033   1.044       .  S
N3029      H3034   1.045       .  S
N3032      H3035   1.045       .  S
N3032      H3036   1.046       .  S
C3037      C3038   1.409       .  A
C3037      C3042   1.398       .  A
C3037      H3044   1.084       .  S
C3038      C3039   1.415       .  A
C3039      C3040   1.399       .  A
C3039      N3046   1.433       .  S
C3040      C3041   1.408       .  A
C3040      H3045   1.084       .  S
C3041      C3042   1.414       .  A
C3042      N3043   1.433       .  S
N3043      H3047   1.045       .  S
N3043      H3048   1.046       .  S
N3046      H3049   1.046       .  S
N3046      H3050   1.044       .  S
C3051      C3052   1.410       .  A
C3051      C3056   1.404       .  A
C3051      H3058   1.083       .  S
C3052      C3053   1.415       .  A
C3053      C3054   1.409       .  A
C3053      N3060   1.438       .  S
C3054      C3055   1.410       .  A
C3054      H3059   1.084       .  S
C3055      C3056   1.411       .  A
C3056      N3057   1.438       .  S
N3057      H3061   1.046       .  S
N3057      H3062   1.045       .  S
N3060      H3063   1.046       .  S
N3060      H3064   1.046       .  S
C3065      C3066   1.409       .  A
C3065      C3070   1.399       .  A
C3065      H3072   1.083       .  S
C3066      C3067   1.418       .  A
C3067      C3068   1.414       .  A
C3067      N3074   1.437       .  S
C3068      C3069   1.405       .  A
C3068      H3073   1.084       .  S
C3069      C3070   1.414       .  A
C3070      N3071   1.439       .  S
N3071      H3075   1.046       .  S
N3071      H3076   1.044       .  S
N3074      H3077   1.046       .  S
N3074      H3078   1.045       .  S
C3079      C3080   1.405       .  A
C3079      C3084   1.400       .  A
C3079      H3086   1.084       .  S
C3080      C3081   1.412       .  A
C3081      C3082   1.406       .  A
C3081      N3088   1.432       .  S
C3082      C3083   1.407       .  A
C3082      H3087   1.084       .  S
C3083      C3084   1.412       .  A
C3084      N3085   1.433       .  S
N3085      H3089   1.046       .  S
N3085      H3090   1.046       .  S
N3088      H3091   1.045       .  S
N3088      H3092   1.046       .  S
C3093      C3094   1.410       .  A
C3093      C3098   1.404       .  A
C3093      H3100   1.083       .  S
C3094      C3095   1.421       .  A
C3095      C3096   1.399       .  A
C3095      N3102   1.433       .  S
C3096      C3097   1.406       .  A
C3096      H3101   1.084       .  S
C3097      C3098   1.415       .  A
C3098      N3099   1.432       .  S
N3099      H3103   1.044       .  S
N3099      H3104   1.046       .  S
N3102      H3105   1.044       .  S
N3102      H3106   1.045       .  S
C3107      C3108   1.406       .  A
C3107      C3112   1.406       .  A
C3107      H3114   1.084       .  S
C3108      C3109   1.405       .  A
C3109      C3110   1.399       .  A
C3109      N3116   1.433       .  S
C3110      C3111   1.411       .  A
C3110      H3115   1.083       .  S
C3111      C3112   1.413       .  A
C3112      N3113   1.432       .  S
N3113      H3117   1.046       .  S
N3113      H3118   1.045       .  S
N3116      H3119   1.046       .  S
N3116      H3120   1.046       .  S
C3121      C3122   1.406       .  A
C3121      C3126   1.403       .  A
C3121      H3128   1.084       .  S
C3122      C3123   1.413       .  A
C3123      C3124   1.404       .  A
C3123      N3130   1.433       .  S
C3124      C3125   1.409       .  A
C3124      H3129   1.083       .  S
C3125      C3126   1.423       .  A
C3126      N3127   1.432       .  S
N3127      H3131   1.045       .  S
N3127      H3132   1.045       .  S
N3130      H3133   1.045       .  S
N3130      H3134   1.046       .  S
C3135      C3136   1.407       .  A
C3135      C3140   1.400       .  A
C3135      H3142   1.084       .  S
C3136      C3137   1.414       .  A
C3137      C3138   1.404       .  A
C3137      N3144   1.431       .  S
C3138      C3139   1.404       .  A
C3138      H3143   1.084       .  S
C3139      C3140   1.410       .  A
C3140      N3141   1.433       .  S
N3141      H3145   1.046       .  S
N3141      H3146   1.046       .  S
N3144      H3147   1.046   1_556  S
N3144      H3148   1.046       .  S
C3149      C3150   1.405       .  A
C3149      C3154   1.405       .  A
C3149      H3156   1.083       .  S
C3150      C3151   1.416       .  A
C3151      C3152   1.409       .  A
C3151      N3158   1.432       .  S
C3152      C3153   1.404       .  A
C3152      H3157   1.084       .  S
C3153      C3154   1.415       .  A
C3154      N3155   1.438       .  S
N3155      H3159   1.046       .  S
N3155      H3160   1.046       .  S
N3158      H3161   1.046       .  S
N3158      H3162   1.046   1_554  S
C3163      C3164   1.410       .  A
C3163      C3168   1.405       .  A
C3163      H3170   1.084       .  S
C3164      C3165   1.415       .  A
C3165      C3166   1.408       .  A
C3165      N3172   1.438       .  S
C3166      C3167   1.410       .  A
C3166      H3171   1.083       .  S
C3167      C3168   1.411       .  A
C3168      N3169   1.433       .  S
N3169      H3173   1.046       .  S
N3169      H3174   1.045       .  S
N3172      H3175   1.046       .  S
N3172      H3176   1.046       .  S
C3177      C3178   1.402       .  A
C3177      C3182   1.402       .  A
C3177      H3184   1.084       .  S
C3178      C3179   1.413       .  A
C3179      C3180   1.404       .  A
C3179      N3186   1.432       .  S
C3180      C3181   1.404       .  A
C3180      H3185   1.084       .  S
C3181      C3182   1.418       .  A
C3182      N3183   1.433       .  S
N3183      H3187   1.046       .  S
N3183      H3188   1.046       .  S
N3186      H3189   1.046       .  S
N3186      H3190   1.046       .  S
C3191      C3192   1.407       .  A
C3191      C3196   1.411       .  A
C3191      H3198   1.084       .  S
C3192      C3193   1.414       .  A
C3193      C3194   1.406       .  A
C3193      N3200   1.433       .  S
C3194      C3195   1.408       .  A
C3194      H3199   1.083       .  S
C3195      C3196   1.417       .  A
C3196      N3197   1.432       .  S
N3197      H3201   1.046       .  S
N3197      H3202   1.045       .  S
N3200      H3203   1.046       .  S
N3200      H3204   1.046       .  S
C3205      C3206   1.407       .  A
C3205      C3210   1.405       .  A
C3205      H3212   1.084       .  S
C3206      C3207   1.399       .  A
C3207      C3208   1.401       .  A
C3207      N3214   1.438       .  S
C3208      C3209   1.411       .  A
C3208      H3213   1.084       .  S
C3209      C3210   1.404       .  A
C3210      N3211   1.437       .  S
N3211      H3215   1.046       .  S
N3211      H3216   1.046       .  S
N3214      H3217   1.045       .  S
N3214      H3218   1.046       .  S
C3219      C3220   1.407       .  A
C3219      C3224   1.406   1_545  A
C3219      H3226   1.084       .  S
C3220      C3221   1.413       .  A
C3221      C3222   1.407   1_545  A
C3221      N3228   1.432       .  S
C3222      C3223   1.407       .  A
C3222      H3227   1.084       .  S
C3223      C3224   1.412       .  A
C3224      N3225   1.433       .  S
N3225      H3229   1.046       .  S
N3225      H3230   1.045       .  S
N3228      H3231   1.046       .  S
N3228      H3232   1.045       .  S
C3233      C3234   1.406       .  A
C3233      C3238   1.400   1_655  A
C3233      H3240   1.084       .  S
C3234      C3235   1.418       .  A
C3235      C3236   1.405   1_655  A
C3235      N3242   1.437       .  S
C3236      C3237   1.398       .  A
C3236      H3241   1.084       .  S
C3237      C3238   1.410       .  A
C3238      N3239   1.439       .  S
N3239      H3243   1.046       .  S
N3239      H3244   1.046       .  S
N3242      H3245   1.046       .  S
N3242      H3246   1.046       .  S
C3247      C3248   1.410       .  A
C3247      C3252   1.418       .  A
C3247      H3254   1.083       .  S
C3248      C3249   1.415       .  A
C3249      C3250   1.401       .  A
C3249      N3256   1.440       .  S
C3250      C3251   1.409       .  A
C3250      H3255   1.082       .  S
C3251      C3252   1.417       .  A
C3252      N3253   1.437       .  S
N3253      H3257   1.046       .  S
N3253      H3258   1.046       .  S
N3256      H3259   1.046       .  S
N3256      H3260   1.046       .  S
C3261      C3262   1.401       .  A
C3261      C3266   1.399   1_545  A
C3261      H3268   1.084       .  S
C3262      C3263   1.410       .  A
C3263      C3264   1.409   1_545  A
C3263      N3270   1.432       .  S
C3264      C3265   1.409       .  A
C3264      H3269   1.083       .  S
C3265      C3266   1.416       .  A
C3266      N3267   1.433       .  S
N3267      H3271   1.046       .  S
N3267      H3272   1.046       .  S
N3270      H3273   1.046       .  S
N3270      H3274   1.046       .  S
C3275      C3276   1.406       .  A
C3275      C3280   1.408   1_655  A
C3275      H3282   1.083       .  S
C3276      C3277   1.413       .  A
C3277      C3278   1.401   1_655  A
C3277      N3284   1.433       .  S
C3278      C3279   1.405       .  A
C3278      H3283   1.084       .  S
C3279      C3280   1.416       .  A
C3280      N3281   1.438       .  S
N3281      H3285   1.046       .  S
N3281      H3286   1.046       .  S
N3284      H3287   1.046       .  S
N3284      H3288   1.046       .  S
C3289      C3290   1.404       .  A
C3289      C3294   1.396       .  A
C3289      H3296   1.084       .  S
C3290      C3291   1.412       .  A
C3291      C3292   1.400       .  A
C3291      N3298   1.433       .  S
C3292      C3293   1.412       .  A
C3292      H3297   1.084       .  S
C3293      C3294   1.419       .  A
C3294      N3295   1.432       .  S
N3295      H3299   1.045       .  S
N3295      H3300   1.045       .  S
N3298      H3301   1.046   1_556  S
N3298      H3302   1.045       .  S
C3303      C3304   1.409       .  A
C3303      C3308   1.400       .  A
C3303      H3310   1.084       .  S
C3304      C3305   1.414       .  A
C3305      C3306   1.399       .  A
C3305      N3312   1.433       .  S
C3306      C3307   1.409       .  A
C3306      H3311   1.084       .  S
C3307      C3308   1.415       .  A
C3308      N3309   1.433       .  S
N3309      H3313   1.045       .  S
N3309      H3314   1.046       .  S
N3312      H3315   1.046       .  S
N3312      H3316   1.044       .  S
C3317      C3318   1.407       .  A
C3317      C3322   1.402       .  A
C3317      H3324   1.083       .  S
C3318      C3319   1.398       .  A
C3319      C3320   1.401       .  A
C3319      N3326   1.432   1_556  S
C3320      C3321   1.411       .  A
C3320      H3325   1.083       .  S
C3321      C3322   1.413       .  A
C3322      N3323   1.438       .  S
N3323      H3327   1.046       .  S
N3323      H3328   1.042       .  S
N3326      H3329   1.045       .  S
N3326      H3330   1.046       .  S
C3331      C3332   1.401       .  A
C3331      C3336   1.409       .  A
C3331      H3338   1.084       .  S
C3332      C3333   1.414       .  A
C3333      C3334   1.400       .  A
C3333      N3340   1.440       .  S
C3334      C3335   1.408       .  A
C3334      H3339   1.083       .  S
C3335      C3336   1.421       .  A
C3336      N3337   1.437       .  S
N3337      H3341   1.046       .  S
N3337      H3342   1.046       .  S
N3340      H3343   1.043       .  S
N3340      H3344   1.046       .  S
C3345      C3346   1.406   1_455  A
C3345      C3350   1.407       .  A
C3345      H3352   1.084   1_455  S
C3346      C3347   1.415       .  A
C3347      C3348   1.406   1_655  A
C3347      N3354   1.437       .  S
C3348      C3349   1.404       .  A
C3348      H3353   1.083       .  S
C3349      C3350   1.414       .  A
C3350      N3351   1.438       .  S
N3351      H3355   1.046       .  S
N3351      H3356   1.046       .  S
N3354      H3357   1.046       .  S
N3354      H3358   1.046       .  S
C3359      C3360   1.406       .  A
C3359      C3364   1.410       .  A
C3359      H3366   1.083       .  S
C3360      C3361   1.416       .  A
C3361      C3362   1.402       .  A
C3361      N3368   1.433       .  S
C3362      C3363   1.406       .  A
C3362      H3367   1.084       .  S
C3363      C3364   1.417       .  A
C3364      N3365   1.437       .  S
N3365      H3369   1.046       .  S
N3365      H3370   1.046       .  S
N3368      H3371   1.046       .  S
N3368      H3372   1.046       .  S
C3373      C3374   1.409       .  A
C3373      C3378   1.413       .  A
C3373      H3380   1.084       .  S
C3374      C3375   1.408       .  A
C3375      C3376   1.396       .  A
C3375      N3382   1.439       .  S
C3376      C3377   1.410       .  A
C3376      H3381   1.083       .  S
C3377      C3378   1.408       .  A
C3378      N3379   1.437       .  S
N3379      H3383   1.046       .  S
N3379      H3384   1.046       .  S
N3382      H3385   1.044       .  S
N3382      H3386   1.046       .  S
C3387      C3388   1.407       .  A
C3387      C3392   1.409       .  A
C3387      H3394   1.084       .  S
C3388      C3389   1.416       .  A
C3389      C3390   1.401       .  A
C3389      N3396   1.433       .  S
C3390      C3391   1.402       .  A
C3390      H3395   1.084       .  S
C3391      C3392   1.413       .  A
C3392      N3393   1.432       .  S
N3393      H3397   1.046       .  S
N3393      H3398   1.046       .  S
N3396      H3399   1.046       .  S
N3396      H3400   1.046       .  S
C3401      C3402   1.407       .  A
C3401      C3406   1.404   1_655  A
C3401      H3408   1.084       .  S
C3402      C3403   1.419       .  A
C3403      C3404   1.401   1_655  A
C3403      N3410   1.430       .  S
C3404      C3405   1.404       .  A
C3404      H3409   1.084       .  S
C3405      C3406   1.415       .  A
C3406      N3407   1.439       .  S
N3407      H3411   1.046       .  S
N3407      H3412   1.046       .  S
N3410      H3413   1.045       .  S
N3410      H3414   1.044       .  S
C3415      C3416   1.413       .  A
C3415      C3420   1.406       .  A
C3415      H3422   1.083       .  S
C3416      C3417   1.412       .  A
C3417      C3418   1.404       .  A
C3417      N3424   1.438       .  S
C3418      C3419   1.412       .  A
C3418      H3423   1.083       .  S
C3419      C3420   1.410       .  A
C3420      N3421   1.438       .  S
N3421      H3425   1.046       .  S
N3421      H3426   1.045       .  S
N3424      H3427   1.046       .  S
N3424      H3428   1.046       .  S
C3429      C3430   1.408       .  A
C3429      C3434   1.403       .  A
C3429      H3436   1.084       .  S
C3430      C3431   1.413       .  A
C3431      C3432   1.402       .  A
C3431      N3438   1.439       .  S
C3432      C3433   1.407       .  A
C3432      H3437   1.084       .  S
C3433      C3434   1.411       .  A
C3434      N3435   1.439       .  S
N3435      H3439   1.046       .  S
N3435      H3440   1.046       .  S
N3438      H3441   1.046       .  S
N3438      H3442   1.046       .  S
C3443      C3444   1.403       .  A
C3443      C3448   1.412       .  A
C3443      H3450   1.084       .  S
C3444      C3445   1.415       .  A
C3445      C3446   1.395       .  A
C3445      N3452   1.434       .  S
C3446      C3447   1.409       .  A
C3446      H3451   1.084       .  S
C3447      C3448   1.420       .  A
C3448      N3449   1.437       .  S
N3449      H3453   1.046       .  S
N3449      H3454   1.046       .  S
N3452      H3455   1.046       .  S
N3452      H3456   1.044       .  S
