geometry optimzed in LAMMPS
_audit_creation_date              2020-12-01 
_audit_creation_method            'lammps2cif' 
_symmetry_space_group_name_H-M    'P1' 
_symmetry_Int_Tables_number       1 
_symmetry_cell_setting            triclinic 
loop_ 
_symmetry_equiv_pos_as_xyz 
  x,y,z 
_cell_length_a                    40.08169191 
_cell_length_b                    40.219976426167996 
_cell_length_c                    41.1597926599371 
_cell_angle_alpha                 90.37030250366938 
_cell_angle_beta                  89.65488689294412 
_cell_angle_gamma                 120.4220987833045 
loop_ 
_atom_site_label 
_atom_site_type_symbol 
_atom_site_fract_x 
_atom_site_fract_y 
_atom_site_fract_z 
_atom_site_charge 
O1          O  0.68298844  0.19941218  0.18139705    -0.82300
C2          C  0.54335889  0.13100416  0.25431149     0.97100
O3          O  0.56704688  0.16655794  0.25092550    -0.71400
O4          O  0.63605528  0.18315434  0.26743506    -0.75000
Al5        Al  0.61615390  0.19471073  0.23042665     1.49000
C6          C  0.66473327  0.17836247  0.26838977     0.92400
O7          O  0.62879271  0.10098729  0.22264325    -0.81200
O8          O  0.58658118  0.13124944  0.14876793    -0.74700
Al9        Al  0.65356694  0.15021363  0.20207053     1.90100
O10         O  0.57463347  0.07673797  0.19534587    -0.73800
O11         O  0.54599092  0.15439012  0.18573890    -0.73700
O12         O  0.54291283  0.10639957  0.23464138    -0.79300
O13         O  0.59630191  0.21084296  0.19604879    -0.77500
O14         O  0.61215169  0.15515847  0.20819836    -1.13700
O15         O  0.66597731  0.23123910  0.21462574    -0.72800
C16         C  0.68710127  0.23077339  0.19203938     0.97900
C17         C  0.59681900  0.07239808  0.21431116     0.94300
Al18       Al  0.56632616  0.11994368  0.19210283     1.55600
O19         O  0.67721042  0.17080442  0.24293719    -0.77500
C20         C  0.56202397  0.19078116  0.18612430     0.98400
C21         C  0.61687843  0.13145491  0.13929875     0.93300
O22         O  0.63915417  0.12895319  0.15946900    -0.82800
O23         O  0.82577952  0.34649013  0.48404085    -0.82300
C24         C  0.74516025  0.24027691  0.38315073     0.97100
O25         O  0.74758201  0.23091690  0.41200973    -0.71400
O26         O  0.82036299  0.26543570  0.43084181    -0.75000
Al27       Al  0.77603250  0.26270006  0.44913905     1.49000
C28         C  0.85465741  0.29322246  0.42980354     0.92400
O29         O  0.84426927  0.36292098  0.39459806    -0.81200
O30         O  0.74628532  0.34240029  0.43265311    -0.74700
Al31       Al  0.83134303  0.35132587  0.43893371     1.90100
O32         O  0.78726383  0.34910451  0.37759198    -0.73800
O33         O  0.70732559  0.26792384  0.42628203    -0.73700
O34         O  0.75530069  0.27448366  0.37603881    -0.79300
O35         O  0.72921975  0.25403924  0.46965796    -0.77500
O36         O  0.78668042  0.30763670  0.43138176    -1.13700
O37         O  0.80180741  0.28446098  0.48967832    -0.72800
C38         C  0.81731510  0.31800709  0.50173370     0.97900
C39         C  0.82316115  0.36474722  0.37326640     0.94300
Al40       Al  0.75209932  0.30848288  0.40538749     1.55600
O41         O  0.86280904  0.32730829  0.43663371    -0.77500
C42         C  0.70149879  0.25202692  0.45367667     0.98400
C43         C  0.77221975  0.37461152  0.44332684     0.93300
O44         O  0.80762462  0.38368580  0.44254310    -0.82800
O45         O  0.61984234  0.50850830  0.48502117    -0.82300
C46         C  0.71974700  0.52447819  0.38168915     0.97100
O47         O  0.73100184  0.53729607  0.41019337    -0.71400
O48         O  0.70183447  0.57922745  0.42993493    -0.75000
Al49       Al  0.70216120  0.53698982  0.44841367     1.49000
C50         C  0.67593392  0.58808703  0.42868963     0.92400
O51         O  0.60252107  0.50974666  0.39587629    -0.81200
O52         O  0.61682302  0.42921542  0.43561289    -0.74700
Al53       Al  0.61412264  0.50858978  0.44025025     1.90100
O54         O  0.60950673  0.46168742  0.38039034    -0.73800
O55         O  0.69049309  0.46035852  0.42545591    -0.73700
O56         O  0.68460676  0.50135092  0.37563488    -0.79300
O57         O  0.70899789  0.49777629  0.46838468    -0.77500
O58         O  0.65561718  0.50406477  0.43203041    -1.13700
O59         O  0.68282589  0.54309026  0.48973147    -0.72800
C60         C  0.64937095  0.52674676  0.50234966     0.97900
C61         C  0.59781839  0.48482739  0.37515327     0.94300
Al62       Al  0.65063885  0.46633515  0.40648099     1.55600
O63         O  0.64162494  0.56459637  0.43774464    -0.77500
C64         C  0.70841451  0.47083668  0.45200441     0.98400
C65         C  0.58570627  0.42541966  0.44662990     0.93300
O66         O  0.57847441  0.45275533  0.44454013    -0.82800
O67         O  0.46599607  0.28640341  0.18579351    -0.82300
C68         C  0.53113038  0.42671891  0.25659602     0.97100
O69         O  0.54325989  0.40328126  0.25528719    -0.71400
O70         O  0.48884287  0.33457453  0.27268437    -0.75000
Al71       Al  0.52307139  0.35354846  0.23652486     1.49000
C72         C  0.45585107  0.30455719  0.27241150     0.92400
O73         O  0.41629414  0.33841989  0.22293405    -0.81200
O74         O  0.49393300  0.38118836  0.15200211    -0.74700
Al75       Al  0.44312210  0.31445455  0.20448038     1.90100
O76         O  0.44799414  0.39244639  0.19575071    -0.73800
O77         O  0.55498943  0.42152181  0.18929331    -0.73700
O78         O  0.50750385  0.42579106  0.23595887    -0.79300
O79         O  0.56070304  0.37219762  0.20313234    -0.77500
O80         O  0.48876126  0.35641188  0.21186901    -1.13700
O81         O  0.51089956  0.30320060  0.22292187    -0.72800
C82         C  0.49235848  0.28259883  0.19890870     0.97900
C83         C  0.42023447  0.37028070  0.21409912     0.94300
Al84       Al  0.50003133  0.40150189  0.19447780     1.55600
O85         O  0.43793067  0.29132052  0.24604951    -0.77500
C86         C  0.57465570  0.40497689  0.19031445     0.98400
C87         C  0.46438339  0.35125089  0.14154961     0.93300
O88         O  0.43857175  0.32816750  0.16100867    -0.82800
O89         O  0.45981599  0.13868898  0.48398050    -0.82300
C90         C  0.43777530  0.22226656  0.38536266     0.97100
O91         O  0.42533705  0.21936663  0.41429838    -0.71400
O92         O  0.38598441  0.14820510  0.43588036    -0.75000
Al93       Al  0.42935253  0.19233536  0.45197780     1.49000
C94         C  0.37855869  0.11408592  0.43245037     0.92400
O95         O  0.45938698  0.12454184  0.39344644    -0.81200
O96         O  0.53857709  0.22007980  0.43557853    -0.74700
Al97       Al  0.45997568  0.13544765  0.43856889     1.90100
O98         O  0.50569473  0.18143554  0.37911164    -0.73800
O99         O  0.50443487  0.26054529  0.42806365    -0.73700
O100        O  0.46319963  0.21375845  0.37818274    -0.79300
O101        O  0.46817410  0.23916449  0.47138424    -0.77500
O102        O  0.46275365  0.18092938  0.43291513    -1.13700
O103        O  0.42718439  0.16804398  0.49263636    -0.72800
C104        C  0.44331979  0.15019174  0.50318019     0.97900
C105        C  0.48423731  0.14613300  0.37310797     0.94300
Al106      Al  0.49973154  0.21580284  0.40754555     1.55600
O107        O  0.40438603  0.10518730  0.43591537    -0.77500
C108        C  0.49358909  0.26667699  0.45500274     0.98400
C109        C  0.54308115  0.19280742  0.44509092     0.93300
O110        O  0.51589868  0.15789446  0.44241827    -0.82800
O111        O  0.76548056  0.49817031  0.18279733    -0.82300
C112        C  0.83995677  0.43470079  0.25435306     0.97100
O113        O  0.80398109  0.42078777  0.25166128    -0.71400
O114        O  0.78423536  0.47079200  0.26881344    -0.75000
Al115      Al  0.77379556  0.43881877  0.23162904     1.49000
C116        C  0.78668583  0.50327521  0.26928878     0.92400
O117        O  0.86545016  0.54767895  0.22344405    -0.81200
O118        O  0.83605614  0.47470937  0.14889494    -0.74700
Al119      Al  0.81544776  0.52080266  0.20306942     1.90100
O120        O  0.89028173  0.51926379  0.19495972    -0.73800
O121        O  0.81584626  0.41210916  0.18529218    -0.73700
O122        O  0.86353712  0.45866252  0.23399028    -0.79300
O123        O  0.75840319  0.40216138  0.19743110    -0.77500
O124        O  0.81233131  0.47541358  0.20889137    -1.13700
O125        O  0.73572369  0.44910590  0.21616867    -0.72800
C126        C  0.73478529  0.46957192  0.19355499     0.97900
C127        C  0.89448926  0.54548124  0.21441787     0.94300
Al128      Al  0.84850706  0.46697136  0.19194417     1.55600
O129        O  0.79439350  0.52294542  0.24382252    -0.77500
C130        C  0.77958697  0.39024309  0.18580976     0.98400
C131        C  0.83535724  0.50442623  0.13981346     0.93300
O132        O  0.83646531  0.52846980  0.16032783    -0.82800
O133        O  0.51612540  0.37822243  0.96319064    -0.82300
C134        C  0.44321070  0.23922895  0.89019539     0.97100
O135        O  0.47914987  0.26255113  0.89231349    -0.71400
O136        O  0.49643001  0.33198872  0.87657397    -0.75000
Al137      Al  0.50891641  0.31152010  0.91277660     1.49000
C138        C  0.49315039  0.36150317  0.87669079     0.92400
O139        O  0.41645530  0.32576055  0.92396401    -0.81200
O140        O  0.44792832  0.28241643  0.99583529    -0.74700
Al141      Al  0.46639247  0.34982978  0.94347909     1.90100
O142        O  0.39255226  0.27179511  0.95124997    -0.73800
O143        O  0.46900631  0.24213172  0.95817655    -0.73700
O144        O  0.41975062  0.23939467  0.91078958    -0.79300
O145        O  0.52592390  0.29103471  0.94610870    -0.77500
O146        O  0.47041074  0.30815599  0.93639744    -1.13700
O147        O  0.54666073  0.36109912  0.92845549    -0.72800
C148        C  0.54706634  0.38208899  0.95156160     0.97900
C149        C  0.38789028  0.29408476  0.93284618     0.94300
Al150      Al  0.43514341  0.26271378  0.95289002     1.55600
O151        O  0.48645047  0.37380438  0.90264627    -0.77500
C152        C  0.50536187  0.25757080  0.95745247     0.98400
C153        C  0.44832319  0.31240414  0.00581727     0.93300
O154        O  0.44635291  0.33550585  0.98636574    -0.82800
O155        O  0.65559667  0.52630743  0.65878567    -0.82300
C156        C  0.55820547  0.44197031  0.76206682     0.97100
O157        O  0.54594578  0.44377912  0.73408580    -0.71400
O158        O  0.57446993  0.51400617  0.71176823    -0.75000
Al159      Al  0.57346265  0.47012899  0.69474449     1.49000
C160        C  0.60079706  0.54863877  0.71471107     0.92400
O161        O  0.67466377  0.53933383  0.74872944    -0.81200
O162        O  0.65635171  0.44486233  0.70261214    -0.74700
Al163      Al  0.66202040  0.52908023  0.70389106     1.90100
O164        O  0.66830832  0.48363229  0.75978959    -0.73800
O165        O  0.58225319  0.40295226  0.71623572    -0.73700
O166        O  0.59282040  0.45062299  0.76666384    -0.79300
O167        O  0.56430258  0.42312099  0.67462221    -0.77500
O168        O  0.61995998  0.48292752  0.71061887    -1.13700
O169        O  0.59256127  0.49394401  0.65335206    -0.72800
C170        C  0.62605134  0.51340585  0.64120117     0.97900
C171        C  0.68089605  0.51834930  0.76709445     0.94300
Al172      Al  0.62458931  0.44864818  0.73413572     1.55600
O173        O  0.63589457  0.55851856  0.70989601    -0.77500
C174        C  0.56315270  0.39597015  0.69049130     0.98400
C175        C  0.68830159  0.47252265  0.69290488     0.93300
O176        O  0.69622247  0.50741265  0.69643620    -0.82800
O177        O  0.44224020  0.15135309  0.66055260    -0.82300
C178        C  0.53043254  0.13869572  0.76043952     0.97100
O179        O  0.52748193  0.12503738  0.73199259    -0.71400
O180        O  0.45635274  0.08241036  0.71138634    -0.75000
Al181      Al  0.49930848  0.12583153  0.69398370     1.49000
C182        C  0.42142867  0.07288475  0.71447384     0.92400
O183        O  0.42903123  0.15297036  0.75099859    -0.81200
O184        O  0.52243773  0.23321222  0.70617940    -0.74700
Al185      Al  0.43924517  0.15280929  0.70590980     1.90100
O186        O  0.48500674  0.20259731  0.76334879    -0.73800
O187        O  0.56604984  0.20327951  0.71565800    -0.73700
O188        O  0.52068769  0.16335142  0.76673267    -0.79300
O189        O  0.54551711  0.16492024  0.67362087    -0.77500
O190        O  0.48609306  0.15831622  0.71164258    -1.13700
O191        O  0.47411693  0.12092876  0.65315502    -0.72800
C192        C  0.45504397  0.13549038  0.64194621     0.97900
C193        C  0.45025155  0.17935774  0.77037290     0.94300
Al194      Al  0.52042716  0.19720527  0.73578979     1.55600
O195        O  0.41064549  0.09709201  0.70982821    -0.77500
C196        C  0.57268435  0.19196648  0.68918542     0.98400
C197        C  0.49406661  0.23633662  0.69741300     0.93300
O198        O  0.45945392  0.20844086  0.70089073    -0.82800
O199        O  0.59570980  0.15766332  0.96090330    -0.82300
C200        C  0.73648750  0.22695079  0.88968373     0.97100
O201        O  0.71275899  0.23863097  0.89243455    -0.71400
O202        O  0.64392139  0.18577992  0.87454332    -0.75000
Al203      Al  0.66325895  0.21785164  0.91169887     1.49000
C204        C  0.61359470  0.15313595  0.87373877     0.92400
O205        O  0.64755248  0.11053349  0.92028572    -0.81200
O206        O  0.68999493  0.18377573  0.99438883    -0.74700
Al207      Al  0.62371925  0.13620805  0.94036580     1.90100
O208        O  0.70181905  0.14089699  0.94779260    -0.73800
O209        O  0.73170918  0.24748105  0.95850967    -0.73700
O210        O  0.73595252  0.20255016  0.90931573    -0.79300
O211        O  0.68248556  0.25418209  0.94619982    -0.77500
O212        O  0.66599730  0.18227438  0.93444433    -1.13700
O213        O  0.61321831  0.20497179  0.92617943    -0.72800
C214        C  0.59243299  0.18495253  0.94952449     0.97900
C215        C  0.67913357  0.11373895  0.92921421     0.94300
Al216      Al  0.71113957  0.19264272  0.95138959     1.55600
O217        O  0.60053396  0.13343225  0.89924857    -0.77500
C218        C  0.71587083  0.26784297  0.95798018     0.98400
C219        C  0.65949097  0.15356478  0.00350781     0.93300
O220        O  0.63714770  0.12898460  0.98298264    -0.82800
O221        O  0.81797755  0.31451377  0.65904460    -0.82300
C222        C  0.83562604  0.41886029  0.75889894     0.97100
O223        O  0.84815149  0.42863637  0.73010082    -0.71400
O224        O  0.88823159  0.39755668  0.71098976    -0.75000
Al225      Al  0.84619172  0.39784454  0.69264417     1.49000
C226        C  0.89661021  0.37182354  0.71588578     0.92400
O227        O  0.81572182  0.29862750  0.74889130    -0.81200
O228        O  0.73769040  0.31516719  0.70769705    -0.74700
Al229      Al  0.81644862  0.31011228  0.70419649     1.90100
O230        O  0.77000450  0.30952842  0.76392861    -0.73800
O231        O  0.77044308  0.38942617  0.71524653    -0.73700
O232        O  0.81140794  0.38441719  0.76587043    -0.79300
O233        O  0.80727366  0.40459014  0.67213442    -0.77500
O234        O  0.81286429  0.35242547  0.71065468    -1.13700
O235        O  0.85097219  0.37684276  0.65198517    -0.72800
C236        C  0.83479367  0.34299558  0.64056317     0.97900
C237        C  0.79165939  0.29611169  0.76967802     0.94300
Al238      Al  0.77558534  0.34966272  0.73590816     1.55600
O239        O  0.87282813  0.33684251  0.70883624    -0.77500
C240        C  0.78128407  0.40617468  0.68822109     0.98400
C241        C  0.73308029  0.28377100  0.69682353     0.93300
O242        O  0.76014615  0.27591026  0.69867725    -0.82800
O243        O  0.81484432  0.45956192  0.96130689    -0.82300
C244        C  0.74993686  0.53207594  0.88825911     0.97100
O245        O  0.73521476  0.49638718  0.89288987    -0.71400
O246        O  0.78593581  0.47776412  0.87611928    -0.75000
Al247      Al  0.75462994  0.46739168  0.91326110     1.49000
C248        C  0.81939936  0.48234449  0.87446588     0.92400
O249        O  0.86475367  0.55966817  0.92134676    -0.81200
O250        O  0.79044111  0.53154038  0.99427351    -0.74700
Al251      Al  0.83724940  0.50966530  0.94117770     1.90100
O252        O  0.83531358  0.58468656  0.94802260    -0.73800
O253        O  0.72802269  0.51035178  0.95752701    -0.73700
O254        O  0.77485090  0.55649838  0.90773445    -0.79300
O255        O  0.71917740  0.45290342  0.94826845    -0.77500
O256        O  0.79169077  0.50648057  0.93510159    -1.13700
O257        O  0.76539477  0.42964871  0.92844773    -0.72800
C258        C  0.78616167  0.42879305  0.95082106     0.97900
C259        C  0.86245973  0.58865565  0.92983396     0.94300
Al260      Al  0.78302671  0.54291330  0.95080581     1.55600
O261        O  0.83978830  0.48959844  0.89962314    -0.77500
C262        C  0.70678643  0.47414585  0.95875745     0.98400
C263        C  0.81934864  0.52963608  0.00416008     0.93300
O264        O  0.84374039  0.53004294  0.98422521    -0.82800
O265        O  0.34930093  0.53879201  0.52033197    -0.82300
C266        C  0.21074925  0.46299392  0.59348841     0.97100
O267        O  0.23368528  0.49879014  0.59140030    -0.71400
O268        O  0.30327637  0.51681635  0.60772780    -0.75000
Al269      Al  0.28250283  0.52898312  0.57152675     1.49000
C270        C  0.33401593  0.51550584  0.60763795     0.92400
O271        O  0.30045505  0.43924596  0.56052867    -0.81200
O272        O  0.25538732  0.46801546  0.48775445    -0.74700
Al273      Al  0.32297945  0.48899105  0.54070284     1.90100
O274        O  0.24578232  0.41392850  0.53356790    -0.73800
O275        O  0.21361479  0.48862127  0.52479455    -0.73700
O276        O  0.21123738  0.43980379  0.57288023    -0.79300
O277        O  0.26182862  0.54539874  0.53820005    -0.77500
O278        O  0.28023586  0.49124411  0.54772073    -1.13700
O279        O  0.33173738  0.56747535  0.55650306    -0.72800
C280        C  0.35182582  0.56903312  0.53227107     0.97900
C281        C  0.26900303  0.41010071  0.55166553     0.94300
Al282      Al  0.23519229  0.45542218  0.53090331     1.55600
O283        O  0.34719486  0.51022610  0.58149141    -0.77500
C284        C  0.22879004  0.52487356  0.52589805     0.98400
C285        C  0.28577566  0.46863606  0.47815807     0.93300
O286        O  0.30890855  0.46767967  0.49826360    -0.82800
O287        O  0.13096007  0.47181391  0.82260458    -0.82300
C288        C  0.11398124  0.55466168  0.72130431     0.97100
O289        O  0.10187232  0.55394049  0.75009540    -0.71400
O290        O  0.06032723  0.48385207  0.77138062    -0.75000
Al291      Al  0.10339602  0.52651705  0.78859898     1.49000
C292        C  0.05025690  0.44888905  0.76911885     0.92400
O293        O  0.13022015  0.45580807  0.73306730    -0.81200
O294        O  0.21062688  0.55109893  0.77547338    -0.74700
Al295      Al  0.13102399  0.46726311  0.77769069     1.90100
O296        O  0.17980247  0.51120587  0.71951981    -0.73800
O297        O  0.17883854  0.59304955  0.76501128    -0.73700
O298        O  0.13858964  0.54472826  0.71523055    -0.79300
O299        O  0.14291543  0.57237594  0.80855790    -0.77500
O300        O  0.13580504  0.51333899  0.77102755    -1.13700
O301        O  0.09875532  0.50190154  0.82974214    -0.72800
C302        C  0.11499383  0.48448595  0.84107559     0.97900
C303        C  0.15635288  0.47631869  0.71329704     0.94300
Al304      Al  0.17382149  0.54708029  0.74598778     1.55600
O305        O  0.07440283  0.43796096  0.77446702    -0.77500
C306        C  0.16822061  0.59965276  0.79194186     0.98400
C307        C  0.21466303  0.52382529  0.78561968     0.93300
O308        O  0.18745196  0.48877821  0.78240710    -0.82800
O309        O  0.28918149  0.84340396  0.82445193    -0.82300
C310        C  0.39182182  0.86008019  0.72361395     0.97100
O311        O  0.40251530  0.87317271  0.75216530    -0.71400
O312        O  0.37201478  0.91322191  0.77188419    -0.75000
Al313      Al  0.37289810  0.87138960  0.79023143     1.49000
C314        C  0.34581081  0.92114392  0.76759010     0.92400
O315        O  0.27386736  0.84060330  0.73426267    -0.81200
O316        O  0.29003755  0.76308850  0.77836217    -0.74700
Al317      Al  0.28480580  0.84158265  0.77922933     1.90100
O318        O  0.28168594  0.79241034  0.72142176    -0.73800
O319        O  0.36456737  0.79569154  0.76793457    -0.73700
O320        O  0.35728661  0.83474156  0.71743989    -0.79300
O321        O  0.38114902  0.83318277  0.81055275    -0.77500
O322        O  0.32710804  0.83777171  0.77299408    -1.13700
O323        O  0.35197393  0.87584079  0.83113330    -0.72800
C324        C  0.31803480  0.86033661  0.84270562     0.97900
C325        C  0.26903792  0.81447499  0.71478720     0.94300
Al326      Al  0.32359514  0.79977789  0.74850291     1.55600
O327        O  0.31102732  0.89726462  0.77493463    -0.77500
C328        C  0.38239762  0.80706009  0.79443778     0.98400
C329        C  0.25809970  0.75897149  0.78761957     0.93300
O330        O  0.25055151  0.78599320  0.78451898    -0.82800
O331        O  0.13305898  0.61938808  0.52096536    -0.82300
C332        C  0.19929347  0.75814837  0.59438482     0.97100
O333        O  0.21254250  0.73579038  0.59096776    -0.71400
O334        O  0.16127888  0.66593624  0.60726792    -0.75000
Al335      Al  0.19344367  0.68724710  0.57028278     1.49000
C336        C  0.12823691  0.63611507  0.60776660     0.92400
O337        O  0.08463367  0.67044111  0.56205933    -0.81200
O338        O  0.15931833  0.71441523  0.48853243    -0.74700
Al339      Al  0.11120016  0.64719556  0.54167071     1.90100
O340        O  0.11427486  0.72414058  0.53429068    -0.73800
O341        O  0.22170573  0.75693392  0.52583588    -0.73700
O342        O  0.17498197  0.75768556  0.57449748    -0.79300
O343        O  0.23022933  0.70855162  0.53601464    -0.77500
O344        O  0.15714315  0.68952852  0.54800741    -1.13700
O345        O  0.18214459  0.63839984  0.55421319    -0.72800
C346        C  0.16123686  0.61684673  0.53153968     0.97900
C347        C  0.08713098  0.70157247  0.55289439     0.94300
Al348      Al  0.16663905  0.73457358  0.53183725     1.55600
O349        O  0.10833133  0.62371864  0.58231866    -0.77500
C350        C  0.24313473  0.74235395  0.52582679     0.98400
C351        C  0.12957870  0.68361081  0.47907350     0.93300
O352        O  0.10445615  0.66117451  0.49922327    -0.82800
O353        O  0.50298377  0.68239645  0.82383103    -0.82300
C354        C  0.41588472  0.58035261  0.72250954     0.97100
O355        O  0.41844007  0.56953847  0.75085208    -0.71400
O356        O  0.49026526  0.60025753  0.76893349    -0.75000
Al357      Al  0.44760878  0.59927459  0.78870764     1.49000
C358        C  0.52485802  0.62649377  0.76519585     0.92400
O359        O  0.51642889  0.69871714  0.73322366    -0.81200
O360        O  0.42190002  0.68207716  0.77773937    -0.74700
Al361      Al  0.50605837  0.68739140  0.77835422     1.90100
O362        O  0.45973631  0.68953131  0.72049087    -0.73800
O363        O  0.38004827  0.60793321  0.76846979    -0.73700
O364        O  0.42568476  0.61483469  0.71678983    -0.79300
O365        O  0.40159765  0.59117695  0.81021148    -0.77500
O366        O  0.45972469  0.64508700  0.77204996    -1.13700
O367        O  0.47395009  0.61980663  0.82969073    -0.72800
C368        C  0.49158904  0.65345538  0.84181861     0.97900
C369        C  0.49462078  0.70199588  0.71340834     0.94300
Al370      Al  0.42496990  0.64841488  0.74806966     1.55600
O371        O  0.53572404  0.66104890  0.77323624    -0.77500
C372        C  0.37400227  0.59019652  0.79489930     0.98400
C373        C  0.44945777  0.71407877  0.78724239     0.93300
O374        O  0.48445200  0.72179690  0.78440023    -0.82800
O375        O  0.43491881  0.83988203  0.52352973    -0.82300
C376        C  0.50456688  0.76937282  0.59305552     0.97100
O377        O  0.46905167  0.75819388  0.59099316    -0.71400
O378        O  0.45593625  0.81275089  0.60935774    -0.75000
Al379      Al  0.44120370  0.77996766  0.57248873     1.49000
C380        C  0.45931135  0.84566001  0.60989662     0.92400
O381        O  0.53533162  0.88676123  0.56171968    -0.81200
O382        O  0.50203846  0.81248737  0.48873448    -0.74700
Al383      Al  0.48500755  0.86110865  0.54278701     1.90100
O384        O  0.55787411  0.85515227  0.53456123    -0.73800
O385        O  0.47810471  0.74956067  0.52452490    -0.73700
O386        O  0.52873784  0.79363683  0.57316301    -0.79300
O387        O  0.42236920  0.74334293  0.53816185    -0.77500
O388        O  0.48002041  0.81492161  0.54890420    -1.13700
O389        O  0.40441933  0.79359421  0.55917052    -0.72800
C390        C  0.40392685  0.81355420  0.53592585     0.97900
C391        C  0.56336501  0.88293829  0.55269510     0.94300
Al392      Al  0.51405322  0.80379713  0.53142782     1.55600
O393        O  0.46587265  0.86485723  0.58420768    -0.77500
C394        C  0.44158254  0.72963372  0.52552107     0.98400
C395        C  0.50175904  0.84229502  0.47956931     0.93300
O396        O  0.50445014  0.86729243  0.49970430    -0.82800
O397        O  0.32316822  0.85705269  0.99911764    -0.82300
C398        C  0.22119903  0.77162031  0.10041227     0.97100
O399        O  0.21021931  0.77597591  0.07269100    -0.71400
O400        O  0.24316517  0.84895085  0.05700427    -0.75000
Al401      Al  0.24009512  0.80640158  0.03525165     1.49000
C402        C  0.27005005  0.88355420  0.05754722     0.92400
O403        O  0.33940704  0.87275952  0.08872044    -0.81200
O404        O  0.32263741  0.77869869  0.04274570    -0.74700
Al405      Al  0.32874541  0.86222484  0.04388718     1.90100
O406        O  0.33050630  0.81594633  0.10097880    -0.73800
O407        O  0.24813850  0.73734130  0.05146488    -0.73700
O408        O  0.25568853  0.78056296  0.10531688    -0.79300
O409        O  0.23049535  0.76124932  0.01195168    -0.77500
O410        O  0.28590279  0.81661931  0.05060022    -1.13700
O411        O  0.26079386  0.83421424  0.99472834    -0.72800
C412        C  0.29417479  0.84858445  0.98192444     0.97900
C413        C  0.34288464  0.85081296  0.10818545     0.94300
Al414      Al  0.28908625  0.78113352  0.07316117     1.55600
O415        O  0.30348598  0.89291769  0.04707332    -0.77500
C416        C  0.22965320  0.73289708  0.02555876     0.98400
C417        C  0.35539479  0.80629804  0.03492514     0.93300
O418        O  0.36334347  0.84096683  0.03913818    -0.82800
O419        O  0.47827940  0.79396127  0.30360042    -0.82300
C420        C  0.40957403  0.86143510  0.22875300     0.97100
O421        O  0.39770445  0.82595892  0.23180489    -0.71400
O422        O  0.45159781  0.81099693  0.21605258    -0.75000
Al423      Al  0.41834990  0.79830895  0.25252877     1.49000
C424        C  0.48512378  0.81564099  0.21586582     0.92400
O425        O  0.52497305  0.89248280  0.26145679    -0.81200
O426        O  0.44973279  0.86142275  0.33448995    -0.74700
Al427      Al  0.49957576  0.84323934  0.28239088     1.90100
O428        O  0.49389551  0.91593986  0.28812004    -0.73800
O429        O  0.38718123  0.83746603  0.29740814    -0.73700
O430        O  0.43333316  0.88598313  0.24865772    -0.79300
O431        O  0.38098302  0.78138382  0.28632941    -0.77500
O432        O  0.45323165  0.83781807  0.27534657    -1.13700
O433        O  0.43132082  0.76205874  0.26858790    -0.72800
C434        C  0.45125486  0.76246557  0.29235861     0.97900
C435        C  0.52112106  0.92074426  0.26944347     0.94300
Al436      Al  0.44208519  0.87249729  0.29112601     1.55600
O437        O  0.50388909  0.82225956  0.24188814    -0.77500
C438        C  0.36707289  0.80107290  0.29749858     0.98400
C439        C  0.48009764  0.86259078  0.34455685     0.93300
O440        O  0.50547278  0.86520878  0.32466040    -0.82800
O441        O  0.17525861  0.70483304  0.30231689    -0.82300
C442        C  0.10318427  0.56734836  0.22833900     0.97100
O443        O  0.13916245  0.58899127  0.23217793    -0.71400
O444        O  0.15814665  0.65871804  0.21573758    -0.75000
Al445      Al  0.16858761  0.63774067  0.25278214     1.49000
C446        C  0.15540910  0.68856178  0.21520757     0.92400
O447        O  0.07638495  0.65300572  0.26032376    -0.81200
O448        O  0.10535940  0.60931814  0.33424721    -0.74700
Al449      Al  0.12579120  0.67674879  0.28130350     1.90100
O450        O  0.05095059  0.59931029  0.28810684    -0.73800
O451        O  0.12648974  0.56782573  0.29737549    -0.73700
O452        O  0.07912129  0.56706908  0.24853141    -0.79300
O453        O  0.18375874  0.61712541  0.28715717    -0.77500
O454        O  0.12946199  0.63483754  0.27502522    -1.13700
O455        O  0.20606432  0.68682621  0.26876144    -0.72800
C456        C  0.20634185  0.70797606  0.29160181     0.97900
C457        C  0.04721025  0.62148326  0.26877354     0.94300
Al458      Al  0.09327040  0.58950599  0.29102815     1.55600
O459        O  0.14758202  0.70075283  0.24070469    -0.77500
C460        C  0.16292857  0.58351019  0.29801941     0.98400
C461        C  0.10650166  0.63990976  0.34378062     0.93300
O462        O  0.10392250  0.66220564  0.32374438    -0.82800
O463        O  0.11345568  0.48995271  0.99659143    -0.82300
C464        C  0.20056782  0.48345659  0.09996077     0.97100
O465        O  0.19872613  0.46888467  0.07212130    -0.71400
O466        O  0.12787938  0.42403846  0.05356674    -0.75000
Al467      Al  0.16996613  0.46624130  0.03359059     1.49000
C468        C  0.09274895  0.41400566  0.05546359     0.92400
O469        O  0.09807261  0.49308310  0.08603177    -0.81200
O470        O  0.19099610  0.57333132  0.04019183    -0.74700
Al471      Al  0.10895669  0.49221428  0.04135583     1.90100
O472        O  0.15257382  0.54516843  0.09764426    -0.73800
O473        O  0.23556836  0.54523484  0.05270587    -0.73700
O474        O  0.19000261  0.50778455  0.10465504    -0.79300
O475        O  0.21560542  0.50463662  0.01201768    -0.77500
O476        O  0.15600212  0.49912503  0.04859509    -1.13700
O477        O  0.14412280  0.45783080  0.99238391    -0.72800
C478        C  0.12596113  0.47259662  0.97959667     0.97900
C479        C  0.11820395  0.52055851  0.10488714     0.94300
Al480      Al  0.18939840  0.53953137  0.07175901     1.55600
O481        O  0.08109603  0.43632474  0.04609573    -0.77500
C482        C  0.24257988  0.53247604  0.02714934     0.98400
C483        C  0.16241124  0.57549937  0.03046201     0.93300
O484        O  0.12795856  0.54759811  0.03485248    -0.82800
O485        O  0.48599979  0.65143983  0.99974811    -0.82300
C486        C  0.50764544  0.75574829  0.10135040     0.97100
O487        O  0.52095323  0.76585485  0.07276752    -0.71400
O488        O  0.56004343  0.73331973  0.05206350    -0.75000
Al489      Al  0.51785838  0.73530304  0.03465680     1.49000
C490        C  0.56654521  0.70592744  0.05423681     0.92400
O491        O  0.48529802  0.63611019  0.09044641    -0.81200
O492        O  0.40787824  0.65411335  0.04842968    -0.74700
Al493      Al  0.48514289  0.64686394  0.04534078     1.90100
O494        O  0.43928383  0.64698465  0.10463792    -0.73800
O495        O  0.44240440  0.72830475  0.05746418    -0.73700
O496        O  0.48207503  0.72152500  0.10763832    -0.79300
O497        O  0.47982409  0.74410722  0.01473015    -0.77500
O498        O  0.48328067  0.68999129  0.05215037    -1.13700
O499        O  0.52135100  0.71396745  0.99347920    -0.72800
C500        C  0.50434133  0.68024195  0.98157261     0.97900
C501        C  0.46136799  0.63431857  0.11116482     0.94300
Al502      Al  0.44614702  0.68779100  0.07725926     1.55600
O503        O  0.54053494  0.67155460  0.04835162    -0.77500
C504        C  0.45350012  0.74528017  0.03066733     0.98400
C505        C  0.40260758  0.62208156  0.03853123     0.93300
O506        O  0.42907550  0.61361003  0.04105968    -0.82800
O507        O  0.26056407  0.49071241  0.30167102    -0.82300
C508        C  0.40253514  0.56599928  0.23139607     0.97100
O509        O  0.37906295  0.57779626  0.23606964    -0.71400
O510        O  0.30999915  0.52670568  0.21721023    -0.75000
Al511      Al  0.32934337  0.55551794  0.25573712     1.49000
C512        C  0.28041805  0.49367700  0.21481014     0.92400
O513        O  0.31466272  0.44732725  0.25737028    -0.81200
O514        O  0.35676475  0.51653020  0.33392462    -0.74700
Al515      Al  0.29009893  0.47157767  0.27952433     1.90100
O516        O  0.36857805  0.47621478  0.28515112    -0.73800
O517        O  0.39845182  0.58230262  0.30073096    -0.73700
O518        O  0.40166009  0.53987410  0.24901745    -0.79300
O519        O  0.34828944  0.58860339  0.29223743    -0.77500
O520        O  0.33215275  0.51820589  0.27540919    -1.13700
O521        O  0.27938265  0.54165166  0.27105055    -0.72800
C522        C  0.25724313  0.51882934  0.29247507     0.97900
C523        C  0.34615324  0.44989641  0.26580248     0.94300
Al524      Al  0.37755694  0.52768739  0.29120342     1.55600
O525        O  0.26760697  0.47143250  0.23888172    -0.77500
C526        C  0.38230646  0.60236671  0.30245173     0.98400
C527        C  0.32602719  0.48624549  0.34243837     0.93300
O528        O  0.30343221  0.46236652  0.32156452    -0.82800
O529        O  0.98763618  0.19164620  0.33116206    -0.82300
C530        C  0.88528798  0.11189761  0.43421203     0.97100
O531        O  0.87416958  0.11288302  0.40553551    -0.71400
O532        O  0.90664342  0.18406229  0.38523994    -0.75000
Al533      Al  0.90412412  0.14015537  0.36702150     1.49000
C534        C  0.93401698  0.21835208  0.38694506     0.92400
O535        O  0.00438016  0.20825967  0.42123778    -0.81200
O536        O  0.98356045  0.11098823  0.37945734    -0.74700
Al537      Al  0.99282025  0.19634322  0.37635505     1.90100
O538        O  0.99497908  0.15200838  0.43506978    -0.73800
O539        O  0.90927851  0.07198102  0.39014058    -0.73700
O540        O  0.91985458  0.12145282  0.44000461    -0.79300
O541        O  0.89533596  0.09346956  0.34670987    -0.77500
O542        O  0.94963495  0.15144855  0.38377716    -1.13700
O543        O  0.92490094  0.16498823  0.32577714    -0.72800
C544        C  0.95855913  0.18143139  0.31351924     0.97900
C545        C  0.00916142  0.18734578  0.44087068     0.94300
Al546      Al  0.95177586  0.11711739  0.40900806     1.55600
O547        O  0.96829187  0.22738783  0.37941396    -0.77500
C548        C  0.89303324  0.06591438  0.36288852     0.98400
C549        C  0.01595351  0.13733501  0.36929250     0.93300
O550        O  0.02540366  0.17273309  0.37163237    -0.82800
O551        O  0.14240285  0.12834000  0.63424074    -0.82300
C552        C  0.08012432  0.20300101  0.56050226     0.97100
O553        O  0.06521965  0.16714543  0.56433243    -0.71400
O554        O  0.11490895  0.14659692  0.54776933    -0.75000
Al555      Al  0.08327975  0.13711554  0.58501545     1.49000
C556        C  0.14702754  0.14805874  0.54736955     0.92400
O557        O  0.19332669  0.22715084  0.59241772    -0.81200
O558        O  0.12026728  0.20107703  0.66646538    -0.74700
Al559      Al  0.16558994  0.17792398  0.61326486     1.90100
O560        O  0.16560769  0.25375767  0.61961637    -0.73800
O561        O  0.05748732  0.18075571  0.63013629    -0.73700
O562        O  0.10444696  0.22683280  0.58058201    -0.79300
O563        O  0.04732869  0.12306701  0.61956424    -0.77500
O564        O  0.12046949  0.17572465  0.60712039    -1.13700
O565        O  0.09313460  0.09880023  0.60097487    -0.72800
C566        C  0.11376804  0.09768036  0.62345503     0.97900
C567        C  0.19199487  0.25670734  0.60084671     0.94300
Al568      Al  0.11271045  0.21270513  0.62313158     1.55600
O569        O  0.16704232  0.15575278  0.57272690    -0.77500
C570        C  0.03557891  0.14457351  0.63064050     0.98400
C571        C  0.14936885  0.19925214  0.67582960     0.93300
O572        O  0.17353642  0.19990635  0.65559565    -0.82800
O573        O  0.14817107  0.98453622  0.32644778    -0.82300
C574        C  0.15779662  0.07704676  0.43285003     0.97100
O575        O  0.17207024  0.09022082  0.40507590    -0.71400
O576        O  0.21581414  0.06340270  0.38586606    -0.75000
Al577      Al  0.17432436  0.06420643  0.36602110     1.49000
C578        C  0.22497748  0.03781353  0.38593542     0.92400
O579        O  0.14625475  0.96342530  0.41509305    -0.81200
O580        O  0.06606348  0.97698426  0.37232731    -0.74700
Al581      Al  0.14659257  0.97644293  0.37088746     1.90100
O582        O  0.09563912  0.96718698  0.42897244    -0.73800
O583        O  0.09504770  0.04946591  0.38545117    -0.73700
O584        O  0.13311914  0.04187960  0.43679695    -0.79300
O585        O  0.13622394  0.07172961  0.34501139    -0.77500
O586        O  0.14069486  0.01675142  0.37998013    -1.13700
O587        O  0.18302480  0.04762241  0.32426513    -0.72800
C588        C  0.16693945  0.01497101  0.31035957     0.97900
C589        C  0.12000172  0.95712750  0.43508157     0.94300
Al590      Al  0.10075739  0.00938089  0.40381588     1.55600
O591        O  0.20235328  0.00441179  0.37485326    -0.77500
C592        C  0.10758731  0.06930828  0.36002102     0.98400
C593        C  0.06338419  0.94637280  0.36152518     0.93300
O594        O  0.09115960  0.93990775  0.36477499    -0.82800
O595        O  0.84443274  0.04506747  0.63601287    -0.82300
C596        C  0.77690712  0.90898846  0.55893445     0.97100
O597        O  0.81247412  0.93326489  0.56217336    -0.71400
O598        O  0.82744679  0.00212285  0.54802960    -0.75000
Al599      Al  0.84028140  0.98151948  0.58372785     1.49000
C600        C  0.82271547  0.03075695  0.54858571     0.92400
O601        O  0.74569614  0.99219004  0.59490058    -0.81200
O602        O  0.77769099  0.94724654  0.66544813    -0.74700
Al603      Al  0.79512284  0.01635856  0.61524543     1.90100
O604        O  0.72223624  0.93698915  0.62023974    -0.73800
O605        O  0.80110467  0.90986292  0.62651766    -0.73700
O606        O  0.75209782  0.90776893  0.57881153    -0.79300
O607        O  0.85734620  0.96097890  0.61679209    -0.77500
O608        O  0.80063492  0.97584804  0.60689428    -1.13700
O609        O  0.87663053  0.03106832  0.60046965    -0.72800
C610        C  0.87601496  0.05076063  0.62419359     0.97900
C611        C  0.71739208  0.95981797  0.60262968     0.94300
Al612      Al  0.76591719  0.92926860  0.62180530     1.55600
O613        O  0.81559238  0.04224758  0.57487255    -0.77500
C614        C  0.83763838  0.92672156  0.62668794     0.98400
C615        C  0.77772245  0.97669499  0.67648294     0.93300
O616        O  0.77401416  0.99934844  0.65764093    -0.82800
O617        O  0.77690537  0.82204759  0.32852671    -0.82300
C618        C  0.86234073  0.80749798  0.43014654     0.97100
O619        O  0.85888008  0.79279384  0.40206731    -0.71400
O620        O  0.78707293  0.75146092  0.38255227    -0.75000
Al621      Al  0.83047451  0.79313752  0.36388878     1.49000
C622        C  0.75229655  0.74285391  0.38357214     0.92400
O623        O  0.76276361  0.82446647  0.41866456    -0.81200
O624        O  0.85733440  0.90222834  0.37286773    -0.74700
Al625      Al  0.77300572  0.82361660  0.37370881     1.90100
O626        O  0.81962031  0.87345613  0.43048263    -0.73800
O627        O  0.89928977  0.87035132  0.38310143    -0.73700
O628        O  0.85392186  0.83331212  0.43534316    -0.79300
O629        O  0.87657369  0.83015401  0.34233665    -0.77500
O630        O  0.81908265  0.82747343  0.38013669    -1.13700
O631        O  0.80490693  0.78746585  0.32327393    -0.72800
C632        C  0.78841198  0.80415204  0.31098511     0.97900
C633        C  0.78484006  0.85056926  0.43796222     0.94300
Al634      Al  0.85442349  0.86654362  0.40336408     1.55600
O635        O  0.74272957  0.76771742  0.37739164    -0.77500
C636        C  0.90464211  0.85720545  0.35702249     0.98400
C637        C  0.82957913  0.90659567  0.36453331     0.93300
O638        O  0.79468570  0.87949530  0.36853263    -0.82800
O639        O  0.93094563  0.82920467  0.63030775    -0.82300
C640        C  0.06993447  0.89452070  0.55723788     0.97100
O641        O  0.04695348  0.90706612  0.55996259    -0.71400
O642        O  0.97776255  0.85352836  0.54280818    -0.75000
Al643      Al  0.99766106  0.88678020  0.57945106     1.49000
C644        C  0.94683924  0.82133512  0.54292151     0.92400
O645        O  0.98081756  0.77917627  0.59041159    -0.81200
O646        O  0.02586035  0.85433171  0.66309023    -0.74700
Al647      Al  0.95793684  0.80628850  0.61011855     1.90100
O648        O  0.03607161  0.81021594  0.61645570    -0.73800
O649        O  0.06642391  0.91740215  0.62649905    -0.73700
O650        O  0.06968947  0.87093838  0.57753369    -0.79300
O651        O  0.01715689  0.92372267  0.61325092    -0.77500
O652        O  0.00044392  0.85179357  0.60312764    -1.13700
O653        O  0.94780012  0.87470431  0.59391187    -0.72800
C654        C  0.92762506  0.85610870  0.61803686     0.97900
C655        C  0.01256052  0.78227183  0.59884392     0.94300
Al656      Al  0.04579833  0.86223457  0.61973571     1.55600
O657        O  0.93399205  0.80265774  0.56899161    -0.77500
C658        C  0.05012390  0.93739266  0.62587628     0.98400
C659        C  0.99541374  0.82469547  0.67300982     0.93300
O660        O  0.97183659  0.80009825  0.65305537    -0.82800
O661        O  0.02056517  0.87273465  0.85412052    -0.82300
C662        C  0.88122923  0.79600329  0.92648624     0.97100
O663        O  0.90362124  0.83197632  0.92444903    -0.71400
O664        O  0.97339383  0.85040043  0.94040409    -0.75000
Al665      Al  0.95266521  0.86270987  0.90439671     1.49000
C666        C  0.00358143  0.84813851  0.94027316     0.92400
O667        O  0.96936508  0.77191148  0.89161116    -0.81200
O668        O  0.92519175  0.80338208  0.82000351    -0.74700
Al669      Al  0.99269573  0.82233550  0.87292648     1.90100
O670        O  0.91518580  0.74774664  0.86434675    -0.73800
O671        O  0.88337794  0.82289985  0.85841928    -0.73700
O672        O  0.88159659  0.77325841  0.90529785    -0.79300
O673        O  0.93209985  0.87953341  0.87129922    -0.77500
O674        O  0.95028874  0.82512255  0.88016323    -1.13700
O675        O  0.00219027  0.90145981  0.88954753    -0.72800
C676        C  0.02388434  0.90304588  0.86658105     0.97900
C677        C  0.93795266  0.74315108  0.88233505     0.94300
Al678      Al  0.90509048  0.78968204  0.86318958     1.55600
O679        O  0.01608331  0.84173852  0.91423188    -0.77500
C680        C  0.89873131  0.85914702  0.85961433     0.98400
C681        C  0.95563913  0.80448439  0.80977485     0.93300
O682        O  0.97903342  0.80312228  0.82947798    -0.82800
O683        O  0.17183869  0.02258463  0.15321411    -0.82300
C684        C  0.09168527  0.91991063  0.05071211     0.97100
O685        O  0.09281953  0.90966156  0.07961002    -0.71400
O686        O  0.16294302  0.94007084  0.10276767    -0.75000
Al687      Al  0.11870471  0.93932187  0.11817241     1.49000
C688        C  0.19779226  0.96636884  0.10119526     0.92400
O689        O  0.19043980  0.03841910  0.06355901    -0.81200
O690        O  0.09282990  0.02050603  0.10317284    -0.74700
Al691      Al  0.17747821  0.02720975  0.10807585     1.90100
O692        O  0.13469874  0.02992304  0.04842728    -0.73800
O693        O  0.05210181  0.94622430  0.09226868    -0.73700
O694        O  0.10224852  0.95444755  0.04390949    -0.79300
O695        O  0.07140785  0.93157550  0.13651487    -0.77500
O696        O  0.13186377  0.98474643  0.10040964    -1.13700
O697        O  0.14158113  0.96001528  0.15947877    -0.72800
C698        C  0.15896156  0.99366178  0.17130546     0.97900
C699        C  0.17017877  0.04346004  0.04340147     0.94300
Al700      Al  0.09849311  0.98765222  0.07421668     1.55600
O701        O  0.20755829  0.00136867  0.10576894    -0.77500
C702        C  0.04462305  0.92945667  0.11926250     0.98400
C703        C  0.11969338  0.05232646  0.11387126     0.93300
O704        O  0.15497621  0.06080918  0.11200982    -0.82800
O705        O  0.10467217  0.17312220  0.85476763    -0.82300
C706        C  0.18112800  0.11105773  0.92501553     0.97100
O707        O  0.14497691  0.09698014  0.92355540    -0.71400
O708        O  0.12632945  0.14761607  0.94058342    -0.75000
Al709      Al  0.11392841  0.11457888  0.90408778     1.49000
C710        C  0.12850189  0.17994791  0.94110185     0.92400
O711        O  0.20507775  0.22202602  0.89348544    -0.81200
O712        O  0.17182310  0.14722194  0.81973970    -0.74700
Al713      Al  0.15487053  0.19568229  0.87410397     1.90100
O714        O  0.22861870  0.19330089  0.86363180    -0.73800
O715        O  0.15331634  0.08560763  0.85704547    -0.73700
O716        O  0.20363123  0.13395244  0.90358539    -0.79300
O717        O  0.09665415  0.07670063  0.87064529    -0.77500
O718        O  0.15149557  0.15019769  0.88014958    -1.13700
O719        O  0.07557827  0.12514612  0.88936774    -0.72800
C720        C  0.07424221  0.14500514  0.86634008     0.97900
C721        C  0.23353391  0.21934833  0.88362645     0.94300
Al722      Al  0.18656424  0.14084956  0.86217776     1.55600
O723        O  0.13489144  0.19901413  0.91537863    -0.77500
C724        C  0.11703249  0.06401604  0.85868479     0.98400
C725        C  0.17157569  0.17712316  0.81054323     0.93300
O726        O  0.17482845  0.20227489  0.83091682    -0.82800
O727        O  0.80320832  0.95389135  0.85600409    -0.82300
C728        C  0.87055772  0.09434695  0.92674965     0.97100
O729        O  0.88332571  0.07150015  0.92436639    -0.71400
O730        O  0.83059011  0.00245300  0.94133642    -0.75000
Al731      Al  0.86338906  0.02223837  0.90473150     1.49000
C732        C  0.79702727  0.97336075  0.94185689     0.92400
O733        O  0.75533099  0.00708830  0.89334532    -0.81200
O734        O  0.83181991  0.04910578  0.82152537    -0.74700
Al735      Al  0.78179215  0.98283390  0.87485567     1.90100
O736        O  0.78722331  0.06063296  0.86577569    -0.73800
O737        O  0.89349115  0.09083456  0.85865919    -0.73700
O738        O  0.84685242  0.09387698  0.90627490    -0.79300
O739        O  0.90023713  0.04180417  0.87075135    -0.77500
O740        O  0.82797514  0.02481643  0.88137305    -1.13700
O741        O  0.85140500  0.97266171  0.89012350    -0.72800
C742        C  0.83075299  0.95096006  0.86745221     0.97900
C743        C  0.75899844  0.03847920  0.88358295     0.94300
Al744      Al  0.83878001  0.06985412  0.86425486     1.55600
O745        O  0.77751917  0.96069109  0.91623919    -0.77500
C746        C  0.91381792  0.07510255  0.85912483     0.98400
C747        C  0.80223404  0.01845673  0.81183735     0.93300
O748        O  0.77669603  0.99575082  0.83158751    -0.82800
O749        O  0.95885979  0.17927853  0.15620707    -0.82300
C750        C  0.06190332  0.19704563  0.05532192     0.97100
O751        O  0.07256946  0.21042215  0.08389088    -0.71400
O752        O  0.04273956  0.25141779  0.10579938    -0.75000
Al753      Al  0.04284701  0.20815444  0.12243413     1.49000
C754        C  0.01638125  0.25938302  0.10278393     0.92400
O755        O  0.94465876  0.17830951  0.06591225    -0.81200
O756        O  0.95986181  0.09955480  0.10934391    -0.74700
Al757      Al  0.95480842  0.17819946  0.11089689     1.90100
O758        O  0.95180845  0.12977139  0.05290247    -0.73800
O759        O  0.03425332  0.13258402  0.09905123    -0.73700
O760        O  0.02726502  0.17210851  0.04911197    -0.79300
O761        O  0.05065780  0.16946614  0.14200850    -0.77500
O762        O  0.99711442  0.17470966  0.10472410    -1.13700
O763        O  0.02159558  0.21174467  0.16370280    -0.72800
C764        C  0.98743781  0.19606776  0.17486916     0.97900
C765        C  0.93962103  0.15220709  0.04635294     0.94300
Al766      Al  0.99355249  0.13686470  0.07987243     1.55600
O767        O  0.98125910  0.23398054  0.10739079    -0.77500
C768        C  0.05182552  0.14353438  0.12564159     0.98400
C769        C  0.92746821  0.09467584  0.11807718     0.93300
O770        O  0.91999088  0.12188643  0.11543463    -0.82800
O771        O  0.80157405  0.81024905  0.15502177    -0.82300
C772        C  0.77829069  0.88744329  0.05236289     0.97100
O773        O  0.76682658  0.88633692  0.08123960    -0.71400
O774        O  0.72730880  0.81523991  0.10056582    -0.75000
Al775      Al  0.76902545  0.85917143  0.11878088     1.49000
C776        C  0.71989502  0.78091926  0.09972818     0.92400
O777        O  0.79908440  0.78834911  0.06616400    -0.81200
O778        O  0.87851643  0.88700532  0.10347903    -0.74700
Al779      Al  0.80053070  0.80273548  0.11030288     1.90100
O780        O  0.84466566  0.84442793  0.04900681    -0.73800
O781        O  0.84399708  0.92654005  0.09458296    -0.73700
O782        O  0.80210257  0.87676302  0.04534539    -0.79300
O783        O  0.80799319  0.90631527  0.13843131    -0.77500
O784        O  0.80292273  0.84742108  0.10170485    -1.13700
O785        O  0.76377992  0.83451500  0.15984427    -0.72800
C786        C  0.78191177  0.81973537  0.17239749     0.97900
C787        C  0.82355796  0.80860503  0.04506830     0.94300
Al788      Al  0.83928628  0.88077988  0.07532563     1.55600
O789        O  0.74449609  0.77194094  0.10866856    -0.77500
C790        C  0.83358887  0.93348210  0.12154151     0.98400
C791        C  0.88369840  0.86061011  0.11404712     0.93300
O792        O  0.85659891  0.82552094  0.11340569    -0.82800
C793        C  0.83674349  0.99669889  0.11860294    -0.21800
C794        C  0.85116369  0.97419379  0.13153412    -0.09800
C795        C  0.88777507  0.99272593  0.14602838     0.29100
C796        C  0.91090479  0.03290221  0.14482592    -0.21800
C797        C  0.89817915  0.05533005  0.12887014    -0.09800
C798        C  0.85997780  0.03704032  0.11723606     0.29100
F799        F  0.84678995  0.05749142  0.10123373    -0.20300
H800        H  0.80846271  0.98273589  0.10709201     0.17400
H801        H  0.94027189  0.04636286  0.15411022     0.17400
F802        F  0.90254701  0.97175640  0.15851368    -0.20300
C803        C  0.75835850  0.91144101  0.97059314    -0.21800
C804        C  0.78182962  0.95178938  0.97209990    -0.09800
C805        C  0.79532266  0.97002288  0.00230946     0.29100
C806        C  0.78890645  0.94784284  0.02994584    -0.21800
C807        C  0.76985773  0.90761376  0.02755828    -0.09800
C808        C  0.75293637  0.88931299  0.99816390     0.29100
F809        F  0.73430383  0.85032578  0.99553522    -0.20300
H810        H  0.74748926  0.89687744  0.94751077     0.17400
H811        H  0.80267066  0.96222078  0.05252397     0.17400
F812        F  0.81728975  0.00900305  0.00466306    -0.20300
C813        C  0.94099908  0.16167016  0.98705340    -0.21800
C814        C  0.91933802  0.14702264  0.01560151    -0.09800
C815        C  0.87933554  0.12128592  0.01367505     0.29100
C816        C  0.86172171  0.10825744  0.98334380    -0.21800
C817        C  0.88399633  0.12039076  0.95481779    -0.09800
C818        C  0.92350101  0.14835465  0.95678200     0.29100
F819        F  0.94595026  0.15935939  0.92967085    -0.20300
H820        H  0.97205364  0.18095883  0.98829327     0.17400
H821        H  0.83162167  0.08555803  0.98232858     0.17400
F822        F  0.85820983  0.10579319  0.04109126    -0.20300
C823        C  0.08651114  0.22106138  0.00017951    -0.21800
C824        C  0.09004797  0.20542935  0.02937090    -0.09800
C825        C  0.11152851  0.18669129  0.03002565     0.29100
C826        C  0.12671219  0.18103320  0.00136556    -0.21800
C827        C  0.12073190  0.19407401  0.97167377    -0.09800
C828        C  0.10217045  0.21590516  0.97146050     0.29100
F829        F  0.09539683  0.22856901  0.94314372    -0.20300
H830        H  0.06892995  0.23445906  0.99917485     0.17400
H831        H  0.14083977  0.16412759  0.00206732     0.17400
F832        F  0.11336868  0.16933814  0.05750185    -0.20300
C833        C  0.01817894  0.15467665  0.85668471    -0.21800
C834        C  0.03584145  0.13244891  0.85286247    -0.09800
C835        C  0.01333202  0.09366541  0.84363015     0.29100
C836        C  0.97333293  0.07598225  0.84198889    -0.21800
C837        C  0.95497286  0.09676131  0.84963399    -0.09800
C838        C  0.97772454  0.13696387  0.85478778     0.29100
F839        F  0.96088651  0.15819745  0.86158283    -0.20300
H840        H  0.03513614  0.18460785  0.86409783     0.17400
H841        H  0.95655596  0.04518809  0.83753528     0.17400
F842        F  0.02986008  0.07179642  0.83977341    -0.20300
C843        C  0.98136599  0.86867116  0.11754820    -0.21800
C844        C  0.00388862  0.90665405  0.12910013    -0.09800
C845        C  0.98551562  0.92564297  0.14176201     0.29100
C846        C  0.94537783  0.90840501  0.13986515    -0.21800
C847        C  0.92299910  0.87201288  0.12521053    -0.09800
C848        C  0.94099290  0.85122179  0.11571654     0.29100
F849        F  0.92030652  0.81614896  0.10125535    -0.20300
H850        H  0.99526521  0.85382141  0.10740288     0.17400
H851        H  0.93203845  0.92479377  0.14755131     0.17400
F852        F  0.00665626  0.96230562  0.15303415    -0.20300
C853        C  0.20141328  0.12155836  0.98191854    -0.21800
C854        C  0.19543446  0.10030225  0.95321885    -0.09800
C855        C  0.18895178  0.06264014  0.95489392     0.29100
C856        C  0.18490169  0.04525338  0.98505046    -0.21800
C857        C  0.18712733  0.06529253  0.01364686    -0.09800
C858        C  0.19702996  0.10406534  0.01210016     0.29100
F859        F  0.19821486  0.12351923  0.03955940    -0.20300
H860        H  0.20501527  0.15013012  0.98099610     0.17400
H861        H  0.17646458  0.01506593  0.98601033     0.17400
F862        F  0.18181189  0.04119775  0.92748955    -0.20300
C863        C  0.07140702  0.06439370  0.14120671    -0.21800
C864        C  0.10831717  0.07960838  0.12703646    -0.09800
C865        C  0.12998659  0.11938919  0.12073881     0.29100
C866        C  0.11309586  0.14235799  0.12535941    -0.21800
C867        C  0.07442030  0.12578713  0.13571448    -0.09800
C868        C  0.05445950  0.08711004  0.14526708     0.29100
F869        F  0.01706232  0.07031362  0.15523658    -0.20300
H870        H  0.05435797  0.03399932  0.14671756     0.17400
H871        H  0.12882160  0.17217730  0.11768751     0.17400
F872        F  0.16545078  0.13509497  0.10664597    -0.20300
C873        C  0.86834503  0.77411997  0.98334161    -0.21800
C874        C  0.85523361  0.78236292  0.95463568    -0.09800
C875        C  0.82569035  0.79135041  0.95634001     0.29100
C876        C  0.81215877  0.79572527  0.98646493    -0.21800
C877        C  0.82804554  0.79131324  0.01515307    -0.09800
C878        C  0.85488010  0.77865901  0.01359106     0.29100
F879        F  0.87109711  0.77486971  0.04114686    -0.20300
H880        H  0.89201585  0.76840920  0.98248268     0.17400
H881        H  0.79190181  0.80605609  0.98740552     0.17400
F882        F  0.81353670  0.80071618  0.92903730    -0.20300
C883        C  0.83771625  0.86161943  0.86122194    -0.21800
C884        C  0.87646915  0.87800638  0.85101798    -0.09800
C885        C  0.89576795  0.91588384  0.83905451     0.29100
C886        C  0.87822124  0.93826148  0.84082741    -0.21800
C887        C  0.84122371  0.92330434  0.85447498    -0.09800
C888        C  0.82021385  0.88425582  0.86325182     0.29100
F889        F  0.78468583  0.86932997  0.87711542    -0.20300
H890        H  0.82232716  0.83250927  0.87060545     0.17400
H891        H  0.89487714  0.96842437  0.83413696     0.17400
F892        F  0.93272581  0.93221937  0.82803029    -0.20300
C893        C  0.06694154  0.87581974  0.96813195    -0.21800
C894        C  0.02634711  0.85664782  0.97023189    -0.09800
C895        C  0.00863330  0.85144059  0.00081928     0.29100
C896        C  0.03127900  0.86811425  0.02832004    -0.21800
C897        C  0.07155550  0.89100403  0.02549849    -0.09800
C898        C  0.08950755  0.89360632  0.99555567     0.29100
F899        F  0.12849063  0.91593732  0.99237592    -0.20300
H900        H  0.08117024  0.88019791  0.94478056     0.17400
H901        H  0.01710850  0.86663750  0.05118698     0.17400
F902        F  0.96951917  0.83284273  0.00379302    -0.20300
C903        C  0.03879636  0.96286558  0.83850020    -0.21800
C904        C  0.05241668  0.94153742  0.85464770    -0.09800
C905        C  0.09060960  0.96040205  0.86612236     0.29100
C906        C  0.11358899  0.00067118  0.86388394    -0.21800
C907        C  0.09841832  0.02244049  0.85073973    -0.09800
C908        C  0.06168106  0.00293866  0.83628454     0.29100
F909        F  0.04717820  0.02270494  0.82130396    -0.20300
H910        H  0.00934911  0.94870206  0.82958350     0.17400
H911        H  0.14185395  0.01504631  0.87509327     0.17400
F912        F  0.10419000  0.94045778  0.88240489    -0.20300
C913        C  0.94672289  0.80026934  0.71779604    -0.21800
C914        C  0.98578812  0.81865819  0.70805603    -0.09800
C915        C  0.01459114  0.83162513  0.73195678     0.29100
C916        C  0.00432727  0.82612228  0.76489056    -0.21800
C917        C  0.96526929  0.80835676  0.77466646    -0.09800
C918        C  0.93649315  0.79551965  0.75072781     0.29100
F919        F  0.89851435  0.77800074  0.75906776    -0.20300
H920        H  0.92398952  0.79024133  0.69979827     0.17400
H921        H  0.02711690  0.83648873  0.78285821     0.17400
F922        F  0.05254228  0.84903898  0.72353530    -0.20300
C923        C  0.75851763  0.81543274  0.26232828    -0.21800
C924        C  0.78378139  0.80434108  0.27545124    -0.09800
C925        C  0.80693263  0.79696371  0.25433194     0.29100
C926        C  0.80540123  0.80143485  0.22097723    -0.21800
C927        C  0.78095273  0.81348086  0.20780541    -0.09800
C928        C  0.75701705  0.81997677  0.22881705     0.29100
F929        F  0.73259710  0.83115987  0.21719583    -0.20300
H930        H  0.74035288  0.82130024  0.27810120     0.17400
H931        H  0.82430448  0.79631389  0.20548898     0.17400
F932        F  0.83253598  0.78728902  0.26586231    -0.20300
C933        C  0.88345806  0.79282621  0.51531250    -0.21800
C934        C  0.92348687  0.80748534  0.51311847    -0.09800
C935        C  0.94103454  0.81405053  0.48232235     0.29100
C936        C  0.91926186  0.80895521  0.45432594    -0.21800
C937        C  0.88015848  0.79823618  0.45690988    -0.09800
C938        C  0.86201481  0.78883899  0.48745282     0.29100
F939        F  0.82433144  0.77887242  0.49053208    -0.20300
H940        H  0.86945300  0.78778925  0.53883692     0.17400
H941        H  0.93378545  0.81697019  0.43096858     0.17400
F942        F  0.97956098  0.82753152  0.47947324    -0.20300
C943        C  0.79992960  0.02531450  0.72074839    -0.21800
C944        C  0.78369265  0.98644011  0.71135840    -0.09800
C945        C  0.77512203  0.95843796  0.73527544     0.29100
C946        C  0.78112281  0.96920012  0.76803492    -0.21800
C947        C  0.79691697  0.00805306  0.77725181    -0.09800
C948        C  0.80698840  0.03614542  0.75334534     0.29100
F949        F  0.82259720  0.07386413  0.76155255    -0.20300
H950        H  0.80767582  0.04758103  0.70271438     0.17400
H951        H  0.77381181  0.94721307  0.78626826     0.17400
F952        F  0.76049660  0.92080682  0.72714585    -0.20300
C953        C  0.74451946  0.88330551  0.50561401    -0.21800
C954        C  0.76642077  0.88203961  0.53158819    -0.09800
C955        C  0.78770254  0.86331568  0.52743640     0.29100
C956        C  0.79040369  0.84974612  0.49698895    -0.21800
C957        C  0.77167468  0.85425879  0.47030714    -0.09800
C958        C  0.74702780  0.86927130  0.47488942     0.29100
F959        F  0.72881110  0.87401553  0.44917938    -0.20300
H960        H  0.72865374  0.89839542  0.50829784     0.17400
H961        H  0.80963690  0.83841153  0.49368735     0.17400
F962        F  0.80934150  0.86199558  0.55210599    -0.20300
C963        C  0.83962803  0.86543521  0.62791894    -0.21800
C964        C  0.85757858  0.90523278  0.63471938    -0.09800
C965        C  0.89688593  0.92524757  0.64338050     0.29100
C966        C  0.91851714  0.90693270  0.64184758    -0.21800
C967        C  0.90161305  0.86848292  0.63156890    -0.09800
C968        C  0.86159722  0.84716037  0.62606697     0.29100
F969        F  0.84468345  0.81009362  0.61553140    -0.20300
H970        H  0.80941681  0.84933227  0.62106168     0.17400
H971        H  0.94940860  0.92379858  0.64597502     0.17400
F972        F  0.91522997  0.96332113  0.65086648    -0.20300
C973        C  0.15685001  0.97458849  0.26136926    -0.21800
C974        C  0.16885418  0.01122614  0.27475908    -0.09800
C975        C  0.17940543  0.04243846  0.25376540     0.29100
C976        C  0.17693480  0.03661643  0.22012703    -0.21800
C977        C  0.16379554  0.99965222  0.20683102    -0.09800
C978        C  0.15417765  0.96872648  0.22788800     0.29100
F979        F  0.14166761  0.93263086  0.21631281    -0.20300
H980        H  0.14869517  0.94997936  0.27690705     0.17400
H981        H  0.18437744  0.06098344  0.20449274     0.17400
F982        F  0.19052514  0.07814012  0.26559022    -0.20300
C983        C  0.13019950  0.96391640  0.49401886    -0.21800
C984        C  0.11817244  0.93981486  0.46669336    -0.09800
C985        C  0.09820350  0.89965371  0.47071368     0.29100
C986        C  0.08717962  0.88392599  0.50194668    -0.21800
C987        C  0.09593229  0.90829254  0.52908359    -0.09800
C988        C  0.11923695  0.94834429  0.52504807     0.29100
F989        F  0.12716521  0.97251736  0.55076205    -0.20300
H990        H  0.14532263  0.99492760  0.49112611     0.17400
H991        H  0.06820428  0.85307846  0.50453061     0.17400
F992        F  0.08599042  0.87593368  0.44440637    -0.20300
C993        C  0.00399385  0.93155623  0.33198140    -0.21800
C994        C  0.02562954  0.91772592  0.34765627    -0.09800
C995        C  0.00686245  0.87902195  0.35752579     0.29100
C996        C  0.96630687  0.85689356  0.35674621    -0.21800
C997        C  0.94456988  0.87300968  0.34544948    -0.09800
C998        C  0.96371566  0.90948463  0.33108130     0.29100
F999        F  0.94341733  0.92536817  0.31941367    -0.20300
H1000       H  0.01803082  0.96106162  0.32352801     0.17400
H1001       H  0.95183366  0.82867557  0.36794179     0.17400
F1002       F  0.02705377  0.86435096  0.37178383    -0.20300
C1003       C  0.17210934  0.17243832  0.71870125    -0.21800
C1004       C  0.15529942  0.19461730  0.71042007    -0.09800
C1005       C  0.14405575  0.21100034  0.73520499     0.29100
C1006       C  0.15014155  0.20564160  0.76769512    -0.21800
C1007       C  0.16668417  0.18316671  0.77598226    -0.09800
C1008       C  0.17736340  0.16632983  0.75114381     0.29100
F1009       F  0.19331389  0.14443447  0.75812552    -0.20300
H1010       H  0.18060471  0.15915574  0.69992973     0.17400
H1011       H  0.14128548  0.21859954  0.78647146     0.17400
F1012       F  0.12791297  0.23268054  0.72806104    -0.20300
C1013       C  0.17174704  0.09030586  0.49121054    -0.21800
C1014       C  0.16677683  0.10274125  0.46086220    -0.09800
C1015       C  0.16170077  0.13477826  0.45899717     0.29100
C1016       C  0.15729412  0.15129556  0.48750498    -0.21800
C1017       C  0.15944803  0.13686418  0.51785193    -0.09800
C1018       C  0.16860407  0.10754003  0.51959494     0.29100
F1019       F  0.17039619  0.09280839  0.54870198    -0.20300
H1020       H  0.17557672  0.06559001  0.49295220     0.17400
H1021       H  0.15040095  0.17403087  0.48593006     0.17400
F1022       F  0.15698163  0.14741289  0.42984118    -0.20300
C1023       C  0.93143742  0.11797874  0.62687953    -0.21800
C1024       C  0.91352170  0.07975519  0.63772804    -0.09800
C1025       C  0.93578695  0.06684329  0.65345577     0.29100
C1026       C  0.97602629  0.09001994  0.65441944    -0.21800
C1027       C  0.99451636  0.12676032  0.64031280    -0.09800
C1028       C  0.97178655  0.14170023  0.62863652     0.29100
F1029       F  0.98870671  0.17731103  0.61520080    -0.20300
H1030       H  0.91470883  0.12821622  0.61430287     0.17400
H1031       H  0.99290456  0.07810371  0.66386415     0.17400
F1032       F  0.91883873  0.03026881  0.66482589    -0.20300
C1033       C  0.04752396  0.99474042  0.64489560    -0.21800
C1034       C  0.07016106  0.97831117  0.63683697    -0.09800
C1035       C  0.11043238  0.00298488  0.63283305     0.29100
C1036       C  0.12637387  0.04328754  0.63234028    -0.21800
C1037       C  0.10238598  0.05912752  0.63631798    -0.09800
C1038       C  0.06336503  0.03460874  0.64464726     0.29100
F1039       F  0.03958556  0.04908636  0.64930187    -0.20300
H1040       H  0.01667523  0.97658657  0.64874065     0.17400
H1041       H  0.15650177  0.06169506  0.62574593     0.17400
F1042       F  0.13358201  0.98830778  0.62585036    -0.20300
C1043       C  0.00206512  0.21418156  0.26596079    -0.21800
C1044       C  0.96472348  0.18839285  0.27802491    -0.09800
C1045       C  0.93461361  0.16783263  0.25577007     0.29100
C1046       C  0.94223118  0.17155896  0.22238844    -0.21800
C1047       C  0.97993907  0.19586731  0.21031140    -0.09800
C1048       C  0.00966148  0.21806713  0.23251768     0.29100
F1049       F  0.04611569  0.24316525  0.22208315    -0.20300
H1050       H  0.02574204  0.23095087  0.28251386     0.17400
H1051       H  0.91857214  0.15425660  0.20597966     0.17400
F1052       F  0.89815892  0.14267746  0.26615011    -0.20300
C1053       C  0.83191064  0.05462156  0.45970195    -0.21800
C1054       C  0.85778079  0.09447646  0.46098290    -0.09800
C1055       C  0.86582643  0.11381518  0.49097488     0.29100
C1056       C  0.85063044  0.09297856  0.51959076    -0.21800
C1057       C  0.82862825  0.05259478  0.51857281    -0.09800
C1058       C  0.81784820  0.03358682  0.48838729     0.29100
F1059       F  0.79625960  0.99452380  0.48676930    -0.20300
H1060       H  0.82626828  0.03922346  0.43684518     0.17400
H1061       H  0.85936250  0.10804070  0.54267670     0.17400
F1062       F  0.89170324  0.15218859  0.49284591    -0.20300
C1063       C  0.01510146  0.20771835  0.49874867    -0.21800
C1064       C  0.03231601  0.20365415  0.47039609    -0.09800
C1065       C  0.06939669  0.20834396  0.47196235     0.29100
C1066       C  0.08790433  0.21436885  0.50190222    -0.21800
C1067       C  0.06937622  0.21507319  0.53069494    -0.09800
C1068       C  0.03342645  0.21317173  0.52884863     0.29100
F1069       F  0.01435005  0.21260629  0.55634860    -0.20300
H1070       H  0.98618227  0.20348572  0.49791888     0.17400
H1071       H  0.11492278  0.21437660  0.50296629     0.17400
F1072       F  0.08611592  0.20357668  0.44492586    -0.20300
C1073       C  0.89174973  0.00940746  0.33819023    -0.21800
C1074       C  0.87116232  0.02586012  0.35128724    -0.09800
C1075       C  0.83278926  0.00167405  0.36170220     0.29100
C1076       C  0.81694104  0.96153830  0.36248710    -0.21800
C1077       C  0.83942091  0.94538233  0.35300289    -0.09800
C1078       C  0.87591487  0.96949501  0.33865391     0.29100
F1079       F  0.89779178  0.95479198  0.32776304    -0.20300
H1080       H  0.92141361  0.02764044  0.33023225     0.17400
H1081       H  0.78877064  0.94367358  0.37350145     0.17400
F1082       F  0.81221414  0.01709886  0.37425295    -0.20300
C1083       C  0.02672003  0.08695914  0.34505595    -0.21800
C1084       C  0.04273664  0.12503265  0.35663146    -0.09800
C1085       C  0.08297255  0.14719476  0.36135351     0.29100
C1086       C  0.10579848  0.12998061  0.35788858    -0.21800
C1087       C  0.08867595  0.09067334  0.34989691    -0.09800
C1088       C  0.04929704  0.06978578  0.34210625     0.29100
F1089       F  0.03186213  0.03160208  0.33499404    -0.20300
H1090       H  0.99587282  0.06929783  0.34090625     0.17400
H1091       H  0.13602146  0.14621588  0.36471376     0.17400
F1092       F  0.09947419  0.18384488  0.37282690    -0.20300
C1093       C  0.44686965  0.62406185  0.20079270    -0.21800
C1094       C  0.43033432  0.58414160  0.20460958    -0.09800
C1095       C  0.43239633  0.56213450  0.17882377     0.29100
C1096       C  0.44661075  0.57940439  0.14837908    -0.21800
C1097       C  0.45870949  0.61851213  0.14381768    -0.09800
C1098       C  0.46081690  0.64112852  0.17069014     0.29100
F1099       F  0.47315604  0.67917410  0.16713678    -0.20300
H1100       H  0.44565128  0.64149789  0.22045606     0.17400
H1101       H  0.44474555  0.56159915  0.12782055     0.17400
F1102       F  0.41653628  0.52344415  0.18193088    -0.20300
C1103       C  0.65180312  0.72705220  0.10668913    -0.21800
C1104       C  0.68226725  0.75216715  0.08626768    -0.09800
C1105       C  0.67444201  0.75645104  0.05383690     0.29100
C1106       C  0.63641934  0.73825779  0.04267681    -0.21800
C1107       C  0.60567131  0.71531518  0.06359402    -0.09800
C1108       C  0.61350645  0.70861203  0.09540723     0.29100
F1109       F  0.58407159  0.68748439  0.11640279    -0.20300
H1110       H  0.65733232  0.72425759  0.13196244     0.17400
H1111       H  0.63076688  0.74412346  0.01828957     0.17400
F1112       F  0.70345771  0.78089926  0.03375816    -0.20300
C1113       C  0.19884660  0.45900383  0.15519481    -0.21800
C1114       C  0.21951742  0.47613582  0.12669167    -0.09800
C1115       C  0.25996809  0.49432283  0.12645907     0.29100
C1116       C  0.27973784  0.49747204  0.15500520    -0.21800
C1117       C  0.25932423  0.48235672  0.18403751    -0.09800
C1118       C  0.21859567  0.46152952  0.18376702     0.29100
F1119       F  0.19804748  0.44709490  0.21162933    -0.20300
H1120       H  0.16765629  0.44586475  0.15577512     0.17400
H1121       H  0.31109238  0.51378309  0.15485567     0.17400
F1122       F  0.28050691  0.51287674  0.09959757    -0.20300
C1123       C  0.30427987  0.53279353  0.03017094    -0.21800
C1124       C  0.28331650  0.54909407  0.01750853    -0.09800
C1125       C  0.30347159  0.58665014  0.00522196     0.29100
C1126       C  0.34350401  0.60903053  0.00902490    -0.21800
C1127       C  0.36395503  0.59444381  0.02553966    -0.09800
C1128       C  0.34443728  0.55541446  0.03455762     0.29100
F1129       F  0.36307259  0.54057728  0.05114682    -0.20300
H1130       H  0.28904055  0.50377874  0.03978365     0.17400
H1131       H  0.35809565  0.63892079  0.00149040     0.17400
F1132       F  0.28405672  0.60290661  0.99239980    -0.20300
C1133       C  0.05794173  0.32961524  0.11187265    -0.21800
C1134       C  0.02825777  0.29953129  0.09393929    -0.09800
C1135       C  0.01602443  0.30834070  0.06486788     0.29100
C1136       C  0.03498342  0.34650639  0.05315934    -0.21800
C1137       C  0.06634124  0.37603382  0.07029673    -0.09800
C1138       C  0.07668192  0.36740593  0.10032565     0.29100
F1139       F  0.10644920  0.39539713  0.11773875    -0.20300
H1140       H  0.06798899  0.32345175  0.13417160     0.17400
H1141       H  0.02700188  0.35245252  0.02974091     0.17400
F1142       F  0.98833801  0.27967852  0.04640259    -0.20300
C1143       C  0.24216193  0.56393396  0.32015989    -0.21800
C1144       C  0.22831240  0.52734368  0.30621575    -0.09800
C1145       C  0.18938194  0.50595499  0.29663970     0.29100
C1146       C  0.16615995  0.52294892  0.29762969    -0.21800
C1147       C  0.18177593  0.56151593  0.30778476    -0.09800
C1148       C  0.21924375  0.58097022  0.32092903     0.29100
F1149       F  0.23490642  0.61773923  0.33193330    -0.20300
H1150       H  0.27215356  0.58090791  0.32751822     0.17400
H1151       H  0.13739731  0.50739688  0.28730411     0.17400
F1152       F  0.17531470  0.47068675  0.28271722    -0.20300
C1153       C  0.08377842  0.56028566  0.17127575    -0.21800
C1154       C  0.09111308  0.54431761  0.19859903    -0.09800
C1155       C  0.10090036  0.51562259  0.19439982     0.29100
C1156       C  0.10627770  0.50530057  0.16318433    -0.21800
C1157       C  0.10246196  0.52392115  0.13604369    -0.09800
C1158       C  0.08978450  0.55041633  0.14004017     0.29100
F1159       F  0.08658702  0.56914173  0.11399287    -0.20300
H1160       H  0.07762633  0.58346417  0.17418734     0.17400
H1161       H  0.11658201  0.48519252  0.16030757     0.17400
F1162       F  0.10950228  0.50088694  0.22049569    -0.20300
C1163       C  0.30301590  0.79780917  0.29987592    -0.21800
C1164       C  0.32570523  0.78114063  0.30705533    -0.09800
C1165       C  0.30706420  0.74253872  0.31722138     0.29100
C1166       C  0.26683562  0.71999783  0.31640296    -0.21800
C1167       C  0.24440818  0.73531714  0.30536069    -0.09800
C1168       C  0.26246186  0.77493739  0.29883580     0.29100
F1169       F  0.24144271  0.79040626  0.28780583    -0.20300
H1170       H  0.31667445  0.82748228  0.29189330     0.17400
H1171       H  0.25332440  0.68946430  0.32140669     0.17400
F1172       F  0.32774100  0.72561979  0.32528607    -0.20300
C1173       C  0.49873457  0.80595265  0.12648732    -0.21800
C1174       C  0.51692917  0.78400759  0.12733054    -0.09800
C1175       C  0.53127954  0.77930485  0.15688062     0.29100
C1176       C  0.52396286  0.79308196  0.18570406    -0.21800
C1177       C  0.50138658  0.81072233  0.18528826    -0.09800
C1178       C  0.49067729  0.81903804  0.15532012     0.29100
F1179       F  0.47003402  0.83731101  0.15409187    -0.20300
H1180       H  0.48680388  0.80911515  0.10396720     0.17400
H1181       H  0.53278496  0.78671586  0.20855141     0.17400
F1182       F  0.54874545  0.75792856  0.15819536    -0.20300
C1183       C  0.44397042  0.66633270  0.30401870    -0.21800
C1184       C  0.40430489  0.64378919  0.31172462    -0.09800
C1185       C  0.38422570  0.66269274  0.32086599     0.29100
C1186       C  0.40208794  0.70271600  0.31846235    -0.21800
C1187       C  0.44011328  0.72478288  0.30691272    -0.09800
C1188       C  0.46179250  0.70667378  0.30141148     0.29100
F1189       F  0.49860952  0.72725714  0.29005432    -0.20300
H1190       H  0.46008014  0.65255144  0.29668526     0.17400
H1191       H  0.38503757  0.71625078  0.32280277     0.17400
F1192       F  0.34618141  0.64227637  0.32907712    -0.20300
C1193       C  0.24972082  0.96601885  0.06648981    -0.21800
C1194       C  0.22625469  0.95399439  0.09451916    -0.09800
C1195       C  0.22311685  0.92289716  0.11240968     0.29100
C1196       C  0.24022119  0.90224142  0.10114983    -0.21800
C1197       C  0.26109003  0.91207111  0.07187223    -0.09800
C1198       C  0.26722092  0.94519590  0.05519547     0.29100
F1199       F  0.28685464  0.95516562  0.02659725    -0.20300
H1200       H  0.25189901  0.98942923  0.05200278     0.17400
H1201       H  0.23528229  0.87696764  0.11447674     0.17400
F1202       F  0.20087709  0.91062169  0.13964900    -0.20300
C1203       C  0.15030871  0.63062143  0.02661614    -0.21800
C1204       C  0.17106426  0.61286611  0.01651272    -0.09800
C1205       C  0.20636624  0.63509927  0.99984582     0.29100
C1206       C  0.22391245  0.67519552  0.99890129    -0.21800
C1207       C  0.20560280  0.69341724  0.01311385    -0.09800
C1208       C  0.16734248  0.67083181  0.02441552     0.29100
F1209       F  0.14828687  0.68801839  0.03665055    -0.20300
H1210       H  0.12289554  0.61411777  0.03915672     0.17400
H1211       H  0.25324838  0.69213205  0.98979979     0.17400
F1212       F  0.22585725  0.61836044  0.98765250    -0.20300
C1213       C  0.20007734  0.77183068  0.15677573    -0.21800
C1214       C  0.19386022  0.75233266  0.12708601    -0.09800
C1215       C  0.17020783  0.71202377  0.12620991     0.29100
C1216       C  0.15537311  0.69136948  0.15495164    -0.21800
C1217       C  0.16388132  0.71065859  0.18491163    -0.09800
C1218       C  0.18496176  0.75123939  0.18556746     0.29100
F1219       F  0.19452575  0.77078456  0.21421644    -0.20300
H1220       H  0.21922475  0.80279818  0.15794884     0.17400
H1221       H  0.13927425  0.66013392  0.15399963     0.17400
F1222       F  0.16549722  0.69225689  0.09823287    -0.20300
C1223       C  0.40079964  0.88683486  0.14350574    -0.21800
C1224       C  0.36044946  0.86478180  0.14014877    -0.09800
C1225       C  0.33706515  0.84991670  0.16781851     0.29100
C1226       C  0.35390094  0.85367400  0.19812607    -0.21800
C1227       C  0.39423670  0.87232402  0.20119323    -0.09800
C1228       C  0.41777307  0.89066380  0.17405220     0.29100
F1229       F  0.45685488  0.90809380  0.17634025    -0.20300
H1230       H  0.41910571  0.89814737  0.12220197     0.17400
H1231       H  0.33542182  0.83890228  0.21874923     0.17400
F1232       F  0.29797251  0.82887348  0.16505074    -0.20300
C1233       C  0.42374046  0.81954996  0.03203261    -0.21800
C1234       C  0.38460270  0.79649243  0.02344431    -0.09800
C1235       C  0.37212246  0.75995686  0.00936447     0.29100
C1236       C  0.39695929  0.74512892  0.00767535    -0.21800
C1237       C  0.43476563  0.76649605  0.01947680    -0.09800
C1238       C  0.44868849  0.80457941  0.03018274     0.29100
F1239       F  0.48513606  0.82569807  0.04207444    -0.20300
H1240       H  0.43407504  0.84763289  0.04300581     0.17400
H1241       H  0.38554866  0.71552807  0.99989384     0.17400
F1242       F  0.33483864  0.73709215  0.99982727    -0.20300
C1243       C  0.51755095  0.85516936  0.38919956    -0.21800
C1244       C  0.48630626  0.85961218  0.37957923    -0.09800
C1245       C  0.46048870  0.85854691  0.40344430     0.29100
C1246       C  0.46613086  0.85327079  0.43605803    -0.21800
C1247       C  0.49684564  0.84803557  0.44523676    -0.09800
C1248       C  0.52258534  0.84907990  0.42168925     0.29100
F1249       F  0.55295363  0.84496910  0.43021366    -0.20300
H1250       H  0.53785813  0.85565758  0.37146052     0.17400
H1251       H  0.44602087  0.85249298  0.45417857     0.17400
F1252       F  0.42964450  0.86210093  0.39538524    -0.20300
C1253       C  0.60910120  0.91695496  0.59802822    -0.21800
C1254       C  0.60284233  0.90954491  0.56456956    -0.09800
C1255       C  0.63488048  0.92304261  0.54356189     0.29100
C1256       C  0.67248580  0.94222877  0.55609511    -0.21800
C1257       C  0.67856501  0.94715744  0.58973796    -0.09800
C1258       C  0.64668499  0.93505551  0.61064124     0.29100
F1259       F  0.65186490  0.93955798  0.64327073    -0.20300
H1260       H  0.58475018  0.90637817  0.61460498     0.17400
H1261       H  0.69678813  0.95107491  0.53970132     0.17400
F1262       F  0.62972487  0.91647540  0.51108123    -0.20300
C1263       C  0.51798306  0.69769045  0.89018013    -0.21800
C1264       C  0.49825626  0.65979088  0.87759563    -0.09800
C1265       C  0.48334793  0.62893306  0.89969323     0.29100
C1266       C  0.48655267  0.63597798  0.93327146    -0.21800
C1267       C  0.50478743  0.67385022  0.94582751    -0.09800
C1268       C  0.52136022  0.70473991  0.92374808     0.29100
F1269       F  0.53991209  0.74183687  0.93439480    -0.20300
H1270       H  0.53017115  0.72221007  0.87397176     0.17400
H1271       H  0.47385801  0.61148161  0.94950733     0.17400
F1272       F  0.46467477  0.59185724  0.88904608    -0.20300
C1273       C  0.49248590  0.69617103  0.65365697    -0.21800
C1274       C  0.50861109  0.71944137  0.68121545    -0.09800
C1275       C  0.53167445  0.75958891  0.67750833     0.29100
C1276       C  0.53520042  0.77635804  0.64689117    -0.21800
C1277       C  0.51582588  0.75312330  0.61989983    -0.09800
C1278       C  0.49622424  0.71279120  0.62318517     0.29100
F1279       F  0.47713457  0.68961281  0.59752582    -0.20300
H1280       H  0.47453624  0.66517357  0.65615636     0.17400
H1281       H  0.54955885  0.80745789  0.64500490     0.17400
F1282       F  0.54715623  0.78267326  0.70392507    -0.20300
C1283       C  0.13934166  0.70073822  0.42023769    -0.21800
C1284       C  0.12357556  0.67256071  0.44443116    -0.09800
C1285       C  0.10236077  0.63327375  0.43528940     0.29100
C1286       C  0.09702930  0.62266501  0.40252898    -0.21800
C1287       C  0.11192735  0.65091064  0.37837788    -0.09800
C1288       C  0.13327207  0.69013730  0.38748553     0.29100
F1289       F  0.14921407  0.71830924  0.36474332    -0.20300
H1290       H  0.15601613  0.73100757  0.42668494     0.17400
H1291       H  0.08090654  0.59237999  0.39603106     0.17400
F1292       F  0.08747746  0.60495231  0.45796445    -0.20300
C1293       C  0.30590176  0.80320419  0.53290001    -0.21800
C1294       C  0.28483521  0.76641245  0.51857116    -0.09800
C1295       C  0.30503039  0.75029159  0.50370992     0.29100
C1296       C  0.34527797  0.76890872  0.50593903    -0.21800
C1297       C  0.36589626  0.80359685  0.52323582    -0.09800
C1298       C  0.34623599  0.82150354  0.53569910     0.29100
F1299       F  0.36539645  0.85439060  0.55351769    -0.20300
H1300       H  0.29087554  0.81596768  0.54481919     0.17400
H1301       H  0.36008531  0.75457213  0.49658697     0.17400
F1302       F  0.28572151  0.71535251  0.48897610    -0.20300
C1303       C  0.04222195  0.72652654  0.54303136    -0.21800
C1304       C  0.06002294  0.71366335  0.56493265    -0.09800
C1305       C  0.05754547  0.71924015  0.59837608     0.29100
C1306       C  0.04015119  0.73992727  0.60947981    -0.21800
C1307       C  0.02370189  0.75416882  0.58753778    -0.09800
C1308       C  0.02349193  0.74595311  0.55423591     0.29100
F1309       F  0.00823982  0.75963867  0.53232745    -0.20300
H1310       H  0.04428031  0.72294199  0.51712365     0.17400
H1311       H  0.04085219  0.74617421  0.63519046     0.17400
F1312       F  0.07502609  0.70776045  0.62006671    -0.20300
C1313       C  0.34330667  0.87491883  0.89934999    -0.21800
C1314       C  0.31171059  0.86073370  0.87822534    -0.09800
C1315       C  0.27412684  0.84490326  0.89158884     0.29100
C1316       C  0.26856362  0.84213641  0.92530490    -0.21800
C1317       C  0.30015883  0.85502936  0.94637458    -0.09800
C1318       C  0.33780169  0.87217582  0.93291570     0.29100
F1319       F  0.36958599  0.88556170  0.95202419    -0.20300
H1320       H  0.37247748  0.88729143  0.88991092     0.17400
H1321       H  0.23938323  0.82896212  0.93487056     0.17400
F1322       F  0.24253307  0.83127134  0.87222117    -0.20300
C1323       C  0.41518535  0.88434779  0.66842034    -0.21800
C1324       C  0.42007558  0.86977910  0.69765302    -0.09800
C1325       C  0.44411131  0.85385749  0.69867067     0.29100
C1326       C  0.45972535  0.84877625  0.67004211    -0.21800
C1327       C  0.45201533  0.86018414  0.64028156    -0.09800
C1328       C  0.43162024  0.88019995  0.63982798     0.29100
F1329       F  0.42368693  0.89164843  0.61138473    -0.20300
H1330       H  0.39607264  0.89601925  0.66731274     0.17400
H1331       H  0.47550245  0.83347562  0.67082131     0.17400
F1332       F  0.44815906  0.83851959  0.72654068    -0.20300
C1333       C  0.44363834  0.80506717  0.79478643    -0.21800
C1334       C  0.40492328  0.78918502  0.80496092    -0.09800
C1335       C  0.38491637  0.75101548  0.81588241     0.29100
C1336       C  0.40183904  0.72804854  0.81355767    -0.21800
C1337       C  0.43883556  0.74238087  0.79965727    -0.09800
C1338       C  0.46056507  0.78183746  0.79195643     0.29100
F1339       F  0.49619303  0.79682838  0.77828384    -0.20300
H1340       H  0.45954213  0.83451517  0.78622522     0.17400
H1341       H  0.38453168  0.69787655  0.82002734     0.17400
F1342       F  0.34749954  0.73478810  0.82565737    -0.20300
C1343       C  0.20891458  0.78624058  0.68160430    -0.21800
C1344       C  0.24930510  0.80947851  0.68364296    -0.09800
C1345       C  0.27133132  0.82232429  0.65506071     0.29100
C1346       C  0.25346453  0.80968960  0.62485108    -0.21800
C1347       C  0.21345130  0.78391507  0.62273588    -0.09800
C1348       C  0.19099010  0.77346139  0.65125128     0.29100
F1349       F  0.15257884  0.74722682  0.65001814    -0.20300
H1350       H  0.19168614  0.77555393  0.70354051     0.17400
H1351       H  0.27138655  0.81699625  0.60327021     0.17400
F1352       F  0.31049060  0.84425281  0.65652999    -0.20300
C1353       C  0.08996237  0.48182622  0.89724833    -0.21800
C1354       C  0.11620662  0.47906908  0.87641316    -0.09800
C1355       C  0.14422609  0.47169507  0.88973283     0.29100
C1356       C  0.14605296  0.46773882  0.92323427    -0.21800
C1357       C  0.12036168  0.47137069  0.94411393    -0.09800
C1358       C  0.09182854  0.47789342  0.93075653     0.29100
F1359       F  0.06583453  0.48079811  0.95006894    -0.20300
H1360       H  0.06802918  0.48717425  0.88760826     0.17400
H1361       H  0.16863172  0.46340253  0.93292948     0.17400
F1362       F  0.17104685  0.46996458  0.87061465    -0.20300
C1363       C  0.11509012  0.61064569  0.69646815    -0.21800
C1364       C  0.10380803  0.57152583  0.69454579    -0.09800
C1365       C  0.09411691  0.55272007  0.66428820     0.29100
C1366       C  0.09866887  0.57359941  0.63606532    -0.21800
C1367       C  0.11419908  0.61361015  0.63771196    -0.09800
C1368       C  0.12091322  0.63184746  0.66812692     0.29100
F1369       F  0.13540441  0.67045205  0.67028852    -0.20300
H1370       H  0.12335372  0.62564849  0.71954063     0.17400
H1371       H  0.09348994  0.55915329  0.61274960     0.17400
F1372       F  0.08378223  0.51502171  0.66183622    -0.20300
C1373       C  0.16945617  0.66127718  0.78692565    -0.21800
C1374       C  0.18389725  0.63990236  0.80190203    -0.09800
C1375       C  0.21866813  0.65919913  0.81914698     0.29100
C1376       C  0.24116827  0.69934825  0.81769175    -0.21800
C1377       C  0.22890439  0.72054255  0.79932118    -0.09800
C1378       C  0.19171438  0.70152670  0.78575125     0.29100
F1379       F  0.17914296  0.72116433  0.76773619    -0.20300
H1380       H  0.14247094  0.64662025  0.77370028     0.17400
H1381       H  0.26966215  0.71363654  0.82858151     0.17400
F1382       F  0.23251452  0.63915889  0.83476844    -0.20300
C1383       C  0.31574507  0.58836704  0.81579296    -0.21800
C1384       C  0.33368913  0.56785606  0.80616196    -0.09800
C1385       C  0.31058349  0.52885811  0.79705321     0.29100
C1386       C  0.27036234  0.51239523  0.79344748    -0.21800
C1387       C  0.25307006  0.53473391  0.79930225    -0.09800
C1388       C  0.27582890  0.57190144  0.81283359     0.29100
F1389       F  0.26003878  0.59388572  0.82020860    -0.20300
H1390       H  0.33306184  0.61848896  0.82262872     0.17400
H1391       H  0.25354821  0.48368153  0.78325254     0.17400
F1392       F  0.32737923  0.50814451  0.78821982    -0.20300
C1393       C  0.26654032  0.45682313  0.41972672    -0.21800
C1394       C  0.29559083  0.47126884  0.44336803    -0.09800
C1395       C  0.33468020  0.48924447  0.43352640     0.29100
C1396       C  0.34436287  0.49336820  0.40065079    -0.21800
C1397       C  0.31540839  0.47902840  0.37701063    -0.09800
C1398       C  0.27624887  0.46021622  0.38676249     0.29100
F1399       F  0.24737834  0.44656341  0.36449818    -0.20300
H1400       H  0.23635495  0.44293674  0.42677477     0.17400
H1401       H  0.37459867  0.50808047  0.39364525     0.17400
F1402       F  0.36376283  0.50423610  0.45561740    -0.20300
C1403       C  0.22746512  0.58231118  0.50577867    -0.21800
C1404       C  0.20692061  0.54382792  0.51604339    -0.09800
C1405       C  0.16711180  0.52702674  0.52309806     0.29100
C1406       C  0.14998317  0.55009854  0.52451044    -0.21800
C1407       C  0.17210458  0.58966545  0.51783168    -0.09800
C1408       C  0.21009178  0.60485591  0.50628164     0.29100
F1409       F  0.23164363  0.64271236  0.49861401    -0.20300
H1410       H  0.25789027  0.59577143  0.49965464     0.17400
H1411       H  0.12071006  0.53788381  0.53366190     0.17400
F1412       F  0.14592345  0.48952387  0.53209671    -0.20300
C1413       C  0.33621778  0.51446263  0.66786084    -0.21800
C1414       C  0.35589248  0.52287360  0.63803899    -0.09800
C1415       C  0.39664490  0.54321040  0.63776592     0.29100
C1416       C  0.41699279  0.55839555  0.66667985    -0.21800
C1417       C  0.39704590  0.55270055  0.69608354    -0.09800
C1418       C  0.35662617  0.52920739  0.69673180     0.29100
F1419       F  0.33656734  0.52487613  0.72453652    -0.20300
H1420       H  0.30487041  0.49875623  0.66858195     0.17400
H1421       H  0.44810734  0.57734092  0.66575703     0.17400
F1422       F  0.41668221  0.55214817  0.60935713    -0.20300
C1423       C  0.19380231  0.43713845  0.64901202    -0.21800
C1424       C  0.18411932  0.45026163  0.62109892    -0.09800
C1425       C  0.15903127  0.46494634  0.62380760     0.29100
C1426       C  0.14693394  0.46999153  0.65427692    -0.21800
C1427       C  0.15968110  0.46041111  0.68229873    -0.09800
C1428       C  0.18167798  0.44229544  0.67966388     0.29100
F1429       F  0.19478429  0.43351962  0.70674476    -0.20300
H1430       H  0.21424765  0.42707899  0.64742746     0.17400
H1431       H  0.13038301  0.48444501  0.65614831     0.17400
F1432       F  0.15051591  0.47917171  0.59735507    -0.20300
C1433       C  0.43940644  0.66669297  0.52137534    -0.21800
C1434       C  0.42137114  0.68847006  0.51597765    -0.09800
C1435       C  0.38185072  0.66909874  0.50806701     0.29100
C1436       C  0.36010646  0.62892369  0.50931962    -0.21800
C1437       C  0.37725435  0.60745291  0.51852550    -0.09800
C1438       C  0.41740593  0.62634349  0.52299465     0.29100
F1439       F  0.43448458  0.60635947  0.53277800    -0.20300
H1440       H  0.46977753  0.68095391  0.52768515     0.17400
H1441       H  0.32907060  0.61470717  0.50598868     0.17400
F1442       F  0.36356967  0.68899485  0.50178993    -0.20300
C1443       C  0.23834076  0.33933221  0.54212860    -0.21800
C1444       C  0.25755379  0.37103349  0.56326846    -0.09800
C1445       C  0.25970569  0.36435422  0.59647232     0.29100
C1446       C  0.24020933  0.32660088  0.60856192    -0.21800
C1447       C  0.21959409  0.29503773  0.58756709    -0.09800
C1448       C  0.21996911  0.30159383  0.55406582     0.29100
F1449       F  0.19947771  0.27170429  0.53332596    -0.20300
H1450       H  0.23604670  0.34389111  0.51651961     0.17400
H1451       H  0.23970095  0.32205440  0.63451624     0.17400
F1452       F  0.27747227  0.39435607  0.61760426    -0.20300
C1453       C  0.92737761  0.69689804  0.92675827    -0.21800
C1454       C  0.92618253  0.70380062  0.89350116    -0.09800
C1455       C  0.90840002  0.67220760  0.87201924     0.29100
C1456       C  0.89089630  0.63440985  0.88383469    -0.21800
C1457       C  0.88972479  0.62754114  0.91730934    -0.09800
C1458       C  0.90864995  0.65907942  0.93869262     0.29100
F1459       F  0.90733254  0.65327844  0.97124279    -0.20300
H1460       H  0.94034721  0.72079942  0.94376745     0.17400
H1461       H  0.87571712  0.61049922  0.86708288     0.17400
F1462       F  0.90651661  0.67792223  0.83977689    -0.20300
C1463       C  0.81549548  0.47895735  0.81446056    -0.21800
C1464       C  0.83342320  0.47682558  0.84288402    -0.09800
C1465       C  0.86025142  0.46404374  0.84088103     0.29100
C1466       C  0.86491813  0.44893867  0.81161600    -0.21800
C1467       C  0.84386139  0.44762126  0.78411437    -0.09800
C1468       C  0.82048465  0.46429317  0.78533465     0.29100
F1469       F  0.79812160  0.46139788  0.75968407    -0.20300
H1470       H  0.79508455  0.48910556  0.81530845     0.17400
H1471       H  0.88234416  0.43534095  0.81113311     0.17400
F1472       F  0.87879960  0.46234816  0.86774382    -0.20300
C1473       C  0.94508326  0.41416845  0.75569090    -0.21800
C1474       C  0.93394802  0.38456213  0.73268421    -0.09800
C1475       C  0.95976079  0.37139546  0.72541852     0.29100
C1476       C  0.99736712  0.39029761  0.73907966    -0.21800
C1477       C  0.00912710  0.42211016  0.76017396    -0.09800
C1478       C  0.98178046  0.43265248  0.76915828     0.29100
F1479       F  0.99110182  0.46250824  0.78989675    -0.20300
H1480       H  0.92552915  0.42425500  0.76252536     0.17400
H1481       H  0.01786804  0.38167808  0.73167905     0.17400
F1482       F  0.94973754  0.34232433  0.70373812    -0.20300
C1483       C  0.77755414  0.33180490  0.96031306    -0.21800
C1484       C  0.73768403  0.30926665  0.96726091    -0.09800
C1485       C  0.71760691  0.32809320  0.97651470     0.29100
C1486       C  0.73572690  0.36820226  0.97502814    -0.21800
C1487       C  0.77420040  0.39046460  0.96441568    -0.09800
C1488       C  0.79575840  0.37225717  0.95875957     0.29100
F1489       F  0.83290989  0.39298511  0.94819447    -0.20300
H1490       H  0.79367632  0.31804600  0.95295688     0.17400
H1491       H  0.71859618  0.38172070  0.97941862     0.17400
F1492       F  0.67951966  0.30762477  0.98439398    -0.20300
C1493       C  0.77304436  0.23855537  0.80464165    -0.21800
C1494       C  0.78885980  0.27854324  0.80154152    -0.09800
C1495       C  0.79624538  0.30122072  0.82952386     0.29100
C1496       C  0.78422709  0.28379587  0.85983057    -0.21800
C1497       C  0.76419744  0.24348514  0.86266666    -0.09800
C1498       C  0.76059970  0.22095205  0.83518509     0.29100
F1499       F  0.74086115  0.18190623  0.83714188    -0.20300
H1500       H  0.76716259  0.22072725  0.78317882     0.17400
H1501       H  0.78681969  0.30157649  0.88066558     0.17400
F1502       F  0.81213522  0.34000897  0.82716852    -0.20300
C1503       C  0.71603949  0.04397521  0.92507492    -0.21800
C1504       C  0.73152068  0.05103441  0.89345166    -0.09800
C1505       C  0.72506963  0.07505542  0.87285341     0.29100
C1506       C  0.70490410  0.09275540  0.88412155    -0.21800
C1507       C  0.69172390  0.08772093  0.91626020    -0.09800
C1508       C  0.69680525  0.06274231  0.93663703     0.29100
F1509       F  0.68462740  0.05784169  0.96800269    -0.20300
H1510       H  0.72112981  0.02606420  0.94149209     0.17400
H1511       H  0.70170320  0.11241455  0.86833409     0.17400
F1512       F  0.73978346  0.08283074  0.84223025    -0.20300
C1513       C  0.63539420  0.19361208  0.68635696    -0.21800
C1514       C  0.61313925  0.21038424  0.67822166    -0.09800
C1515       C  0.63194825  0.24918495  0.66911297     0.29100
C1516       C  0.67210613  0.27178895  0.67137135    -0.21800
C1517       C  0.69419279  0.25640575  0.68364870    -0.09800
C1518       C  0.67582880  0.21649872  0.68921209     0.29100
F1519       F  0.69605065  0.20054997  0.70104940    -0.20300
H1520       H  0.62117318  0.16369915  0.69375907     0.17400
H1521       H  0.68558841  0.30236720  0.66642710     0.17400
F1522       F  0.61117349  0.26618524  0.66143900    -0.20300
C1523       C  0.61109560  0.15276583  0.81344257    -0.21800
C1524       C  0.59169513  0.13956409  0.84322428    -0.09800
C1525       C  0.55095016  0.11840619  0.84373738     0.29100
C1526       C  0.53025862  0.11437554  0.81536868    -0.21800
C1527       C  0.54987876  0.13021954  0.78617481    -0.09800
C1528       C  0.59032185  0.14792262  0.78501458     0.29100
F1529       F  0.60992707  0.16472262  0.75726988    -0.20300
H1530       H  0.64243272  0.16906493  0.81254117     0.17400
H1531       H  0.49910801  0.10148655  0.81666359     0.17400
F1532       F  0.53120788  0.10536858  0.87212669    -0.20300
C1533       C  0.36669325  0.02271439  0.74881334    -0.21800
C1534       C  0.39399077  0.03237827  0.72358335    -0.09800
C1535       C  0.39995692  0.00347337  0.71046012     0.29100
C1536       C  0.38184356  0.96686347  0.72401672    -0.21800
C1537       C  0.35717235  0.95784522  0.75092709    -0.09800
C1538       C  0.34815682  0.98541069  0.76246012     0.29100
F1539       F  0.32409192  0.97736960  0.78828598    -0.20300
H1540       H  0.36182883  0.04463580  0.75938418     0.17400
H1541       H  0.38856147  0.94579309  0.71430308     0.17400
F1542       F  0.42518327  0.01129097  0.68552049    -0.20300
C1543       C  0.53674729  0.29601559  0.66671343    -0.21800
C1544       C  0.50299558  0.27452735  0.68538197    -0.09800
C1545       C  0.48448800  0.29326491  0.69865882     0.29100
C1546       C  0.50218840  0.33351122  0.69649986    -0.21800
C1547       C  0.53822027  0.35531050  0.68098327    -0.09800
C1548       C  0.55431229  0.33610346  0.66457487     0.29100
F1549       F  0.58900179  0.35635829  0.64936813    -0.20300
H1550       H  0.55140915  0.28209469  0.65618598     0.17400
H1551       H  0.48958390  0.34796943  0.70954365     0.17400
F1552       F  0.45221024  0.27355045  0.71720348    -0.20300
C1553       C  0.68023515  0.52715915  0.82640184    -0.21800
C1554       C  0.70172479  0.53323941  0.79789303    -0.09800
C1555       C  0.74157590  0.54683653  0.79998784     0.29100
C1556       C  0.75906265  0.55188749  0.83050008    -0.21800
C1557       C  0.73684915  0.54309159  0.85907536    -0.09800
C1558       C  0.69753105  0.53180731  0.85674414     0.29100
F1559       F  0.67491949  0.52132162  0.88369571    -0.20300
H1560       H  0.64934116  0.51591331  0.82511863     0.17400
H1561       H  0.78897155  0.55900292  0.83168908     0.17400
F1562       F  0.76271291  0.55201388  0.77261855    -0.20300
C1563       C  0.75586016  0.48377643  0.68972419    -0.21800
C1564       C  0.71689980  0.46245367  0.68026281    -0.09800
C1565       C  0.70350399  0.42631997  0.66511111     0.29100
C1566       C  0.72656577  0.40939221  0.66422930    -0.21800
C1567       C  0.76387988  0.42881140  0.67721827    -0.09800
C1568       C  0.77938796  0.46716780  0.68788329     0.29100
F1569       F  0.81606527  0.48710121  0.69948102    -0.20300
H1570       H  0.76702377  0.51167898  0.70128799     0.17400
H1571       H  0.71415761  0.37989221  0.65581292     0.17400
F1572       F  0.66677290  0.40584031  0.65379154    -0.20300
C1573       C  0.60365987  0.60107292  0.75107410    -0.21800
C1574       C  0.58867029  0.57691440  0.72360612    -0.09800
C1575       C  0.55658455  0.57462026  0.70774356     0.29100
C1576       C  0.53808175  0.59339283  0.72047676    -0.21800
C1577       C  0.55110556  0.61525794  0.74920671    -0.09800
C1578       C  0.58500530  0.62021161  0.76384530     0.29100
F1579       F  0.59808089  0.64070250  0.79184287    -0.20300
H1580       H  0.62803966  0.60291654  0.76393271     0.17400
H1581       H  0.51215542  0.58929401  0.70864705     0.17400
F1582       F  0.54182797  0.55244230  0.68069979    -0.20300
C1583       C  0.44613251  0.17200218  0.82980589    -0.21800
C1584       C  0.43548313  0.18377018  0.80173025    -0.09800
C1585       C  0.41878516  0.20706021  0.80446696     0.29100
C1586       C  0.41609072  0.22126497  0.83493284    -0.21800
C1587       C  0.43023480  0.21241616  0.86265201    -0.09800
C1588       C  0.44351452  0.18620074  0.86014970     0.29100
F1589       F  0.45790318  0.17774183  0.88655955    -0.20300
H1590       H  0.45956612  0.15448463  0.82791336     0.17400
H1591       H  0.40682164  0.24229988  0.83637016     0.17400
F1592       F  0.40904939  0.21933975  0.77743256    -0.20300
C1593       C  0.50346255  0.38604075  0.78797609    -0.21800
C1594       C  0.53163600  0.42527535  0.78943369    -0.09800
C1595       C  0.54135687  0.44449944  0.81946373     0.29100
C1596       C  0.52535912  0.42386844  0.84799589    -0.21800
C1597       C  0.50067437  0.38374242  0.84676763    -0.09800
C1598       C  0.48838218  0.36511958  0.81657112     0.29100
F1599       F  0.46393136  0.32641439  0.81483874    -0.20300
H1600       H  0.49626881  0.37079381  0.76498368     0.17400
H1601       H  0.53515525  0.43860675  0.87114086     0.17400
F1602       F  0.56898492  0.48237304  0.82130699    -0.20300
C1603       C  0.50538949  0.19558236  0.95700250    -0.21800
C1604       C  0.52364645  0.23476474  0.96599994    -0.09800
C1605       C  0.56187827  0.25294037  0.97737138     0.29100
C1606       C  0.58253784  0.23360701  0.97639309    -0.21800
C1607       C  0.56588987  0.19630263  0.96343354    -0.09800
C1608       C  0.52657102  0.17655414  0.95516012     0.29100
F1609       F  0.50998415  0.14071938  0.94188630    -0.20300
H1610       H  0.47585867  0.18086193  0.94830740     0.17400
H1611       H  0.61286790  0.24911166  0.98281373     0.17400
F1612       F  0.58024295  0.29021225  0.98723006    -0.20300
C1613       C  0.64694694  0.41842561  0.98058871    -0.21800
C1614       C  0.66575052  0.45606918  0.96836190    -0.09800
C1615       C  0.64339517  0.47228916  0.95861166     0.29100
C1616       C  0.60305686  0.44899153  0.95630195    -0.21800
C1617       C  0.58492137  0.41003779  0.96502301    -0.09800
C1618       C  0.60676268  0.39577962  0.97932971     0.29100
F1619       F  0.58933763  0.35860706  0.98911397    -0.20300
H1620       H  0.66350940  0.40555416  0.98873034     0.17400
H1621       H  0.58653956  0.46037711  0.94511591     0.17400
F1622       F  0.66065181  0.50914081  0.94779505    -0.20300
C1623       C  0.31709859  0.26567530  0.94204656    -0.21800
C1624       C  0.34880792  0.28149898  0.92065076    -0.09800
C1625       C  0.34228685  0.28002017  0.88704604     0.29100
C1626       C  0.30446352  0.26143086  0.87504244    -0.21800
C1627       C  0.27271267  0.24501696  0.89638320    -0.09800
C1628       C  0.27926633  0.24800005  0.93006940     0.29100
F1629       F  0.24912312  0.23095198  0.95122146    -0.20300
H1630       H  0.32166003  0.26588752  0.96798399     0.17400
H1631       H  0.29988746  0.25857529  0.84901751     0.17400
F1632       F  0.37237267  0.29360726  0.86579611    -0.20300
C1633       C  0.81103632  0.52914507  0.09614604    -0.21800
C1634       C  0.83234540  0.51159386  0.10514542    -0.09800
C1635       C  0.85020015  0.50131832  0.08093812     0.29100
C1636       C  0.84661392  0.50837072  0.04830154    -0.21800
C1637       C  0.82464911  0.52521775  0.03912926    -0.09800
C1638       C  0.80686505  0.53561494  0.06345548     0.29100
F1639       F  0.78572605  0.55221366  0.05575696    -0.20300
H1640       H  0.79694786  0.53724978  0.11450368     0.17400
H1641       H  0.86045902  0.49983680  0.03007206     0.17400
F1642       F  0.87168278  0.48516618  0.08884733    -0.20300
C1643       C  0.93886478  0.57960628  0.26095901    -0.21800
C1644       C  0.93367031  0.57192022  0.22744031    -0.09800
C1645       C  0.96653520  0.58432878  0.20751351     0.29100
C1646       C  0.00369175  0.60318912  0.22102159    -0.21800
C1647       C  0.00871176  0.60880786  0.25471089    -0.09800
C1648       C  0.97602775  0.59720340  0.27461632     0.29100
F1649       F  0.97997612  0.60169366  0.30733402    -0.20300
H1650       H  0.91397124  0.56956648  0.27684400     0.17400
H1651       H  0.02845537  0.61122115  0.20537870     0.17400
F1652       F  0.96260067  0.57678841  0.17511873    -0.20300
C1653       C  0.42319742  0.15330615  0.56028147    -0.21800
C1654       C  0.44369071  0.14316862  0.53852870    -0.09800
C1655       C  0.46557374  0.12758242  0.55110800     0.29100
C1656       C  0.46795455  0.12383531  0.58463994    -0.21800
C1657       C  0.44869315  0.13543215  0.60643485    -0.09800
C1658       C  0.42549319  0.14945524  0.59379150     0.29100
F1659       F  0.40548410  0.16023347  0.61370922    -0.20300
H1660       H  0.40578953  0.16490840  0.55140308     0.17400
H1661       H  0.48591463  0.11288136  0.59355077     0.17400
F1662       F  0.48577958  0.11701000  0.53121666    -0.20300
C1663       C  0.30846339  0.08104729  0.44366086    -0.21800
C1664       C  0.33872852  0.08504720  0.42371274    -0.09800
C1665       C  0.33032164  0.06801385  0.39266862     0.29100
C1666       C  0.29220488  0.04934984  0.38101309    -0.21800
C1667       C  0.26246913  0.04788067  0.40022280    -0.09800
C1668       C  0.27057587  0.06249869  0.43210457     0.29100
F1669       F  0.24212142  0.06090334  0.45132235    -0.20300
H1670       H  0.31458674  0.09445219  0.46748627     0.17400
H1671       H  0.28644956  0.03877937  0.35622185     0.17400
F1672       F  0.35939331  0.07297768  0.37249840    -0.20300
C1673       C  0.42904854  0.30654195  0.09568704    -0.21800
C1674       C  0.45989604  0.34221054  0.10646117    -0.09800
C1675       C  0.48702042  0.36759597  0.08361072     0.29100
C1676       C  0.48275562  0.35752216  0.05078106    -0.21800
C1677       C  0.45218060  0.32180256  0.04038664    -0.09800
C1678       C  0.42540235  0.29624672  0.06291999     0.29100
F1679       F  0.39529210  0.26184773  0.05309893    -0.20300
H1680       H  0.40790192  0.28627875  0.11268523     0.17400
H1681       H  0.50370957  0.37739685  0.03342647     0.17400
F1682       F  0.51779577  0.40189092  0.09283259    -0.20300
C1683       C  0.68013721  0.48142343  0.18460686    -0.21800
C1684       C  0.69637342  0.45792782  0.18038524    -0.09800
C1685       C  0.67229137  0.41900249  0.17182180     0.29100
C1686       C  0.63227752  0.40271654  0.17152860    -0.21800
C1687       C  0.61554338  0.42496221  0.17969515    -0.09800
C1688       C  0.63977186  0.46509536  0.18399098     0.29100
F1689       F  0.62456849  0.48767606  0.19129636    -0.20300
H1690       H  0.69826798  0.51139223  0.19153593     0.17400
H1691       H  0.61429210  0.37193377  0.16759993     0.17400
F1692       F  0.68732616  0.39574385  0.16718201    -0.20300
C1693       C  0.44128978  0.27983897  0.36144033    -0.21800
C1694       C  0.42692922  0.24000362  0.35969609    -0.09800
C1695       C  0.41464888  0.22101257  0.32968374     0.29100
C1696       C  0.42064663  0.24220627  0.30134111    -0.21800
C1697       C  0.43975422  0.28263126  0.30261398    -0.09800
C1698       C  0.44801531  0.30122778  0.33300416     0.29100
F1699       F  0.46508728  0.34019161  0.33503767    -0.20300
H1700       H  0.45146425  0.29498536  0.38431417     0.17400
H1701       H  0.41382231  0.22728891  0.27817183     0.17400
F1702       F  0.40076917  0.18251020  0.32746021    -0.20300
C1703       C  0.36026075  0.41901892  0.21881387    -0.21800
C1704       C  0.35818131  0.42312762  0.25257457    -0.09800
C1705       C  0.37265469  0.40569333  0.27328603     0.29100
C1706       C  0.38991355  0.38559321  0.26041723    -0.21800
C1707       C  0.39423688  0.38361003  0.22670723    -0.09800
C1708       C  0.37873457  0.40002527  0.20593571     0.29100
F1709       F  0.38262992  0.39878910  0.17323753    -0.20300
H1710       H  0.34978635  0.43265670  0.20242017     0.17400
H1711       H  0.40223610  0.37376375  0.27685749     0.17400
F1712       F  0.37123699  0.40922187  0.30600794    -0.20300
C1713       C  0.69941651  0.69182167  0.41848146    -0.21800
C1714       C  0.72360237  0.70223617  0.39093637    -0.09800
C1715       C  0.72661967  0.67351283  0.37389573     0.29100
C1716       C  0.70853163  0.63592959  0.38552641    -0.21800
C1717       C  0.68684234  0.62587681  0.41434960    -0.09800
C1718       C  0.68089371  0.65361660  0.43015830     0.29100
F1719       F  0.66019638  0.64472971  0.45819458    -0.20300
H1720       H  0.69724715  0.71370442  0.43223190     0.17400
H1721       H  0.71314464  0.61489693  0.37279774     0.17400
F1722       F  0.74946300  0.68251346  0.34708043    -0.20300
C1723       C  0.60608925  0.50881518  0.55088075    -0.21800
C1724       C  0.64387097  0.52764234  0.53788766    -0.09800
C1725       C  0.67540557  0.54492393  0.55928078     0.29100
C1726       C  0.66915514  0.54129338  0.59280729    -0.21800
C1727       C  0.63143712  0.52054628  0.60577427    -0.09800
C1728       C  0.59982286  0.50531090  0.58439234     0.29100
F1729       F  0.56285731  0.48604512  0.59563403    -0.20300
H1730       H  0.58110266  0.49572321  0.53506749     0.17400
H1731       H  0.69413360  0.55392429  0.60862684     0.17400
F1732       F  0.71232125  0.56430588  0.54797842    -0.20300
C1733       C  0.78472117  0.50644349  0.32960617    -0.21800
C1734       C  0.77781112  0.51735413  0.29925618    -0.09800
C1735       C  0.75829282  0.53819860  0.29765627     0.29100
C1736       C  0.74279897  0.54465492  0.32577513    -0.21800
C1737       C  0.74740872  0.53132812  0.35575333    -0.09800
C1738       C  0.76989399  0.51369375  0.35778888     0.29100
F1739       F  0.77341121  0.49922146  0.38637956    -0.20300
H1740       H  0.79973430  0.49044289  0.33129175     0.17400
H1741       H  0.72461526  0.55732695  0.32382612     0.17400
F1742       F  0.75057355  0.54869355  0.26864173    -0.20300
C1743       C  0.60260572  0.49281880  0.31608668    -0.21800
C1744       C  0.57945218  0.48231656  0.34401254    -0.09800
C1745       C  0.53901087  0.46127275  0.34115775     0.29100
C1746       C  0.52212480  0.44755836  0.31067390    -0.21800
C1747       C  0.54564815  0.45459141  0.28322489    -0.09800
C1748       C  0.58583950  0.47904188  0.28578811     0.29100
F1749       F  0.60912846  0.48536991  0.25966732    -0.20300
H1750       H  0.63387159  0.50856333  0.31813708     0.17400
H1751       H  0.49120109  0.42779370  0.30914723     0.17400
F1752       F  0.51628414  0.45006865  0.36810973    -0.20300
C1753       C  0.51823706  0.36918949  0.45233679    -0.21800
C1754       C  0.55766207  0.38725436  0.46012051    -0.09800
C1755       C  0.57183827  0.36539141  0.47494524     0.29100
C1756       C  0.54870704  0.32546116  0.47726365    -0.21800
C1757       C  0.51078232  0.30684604  0.46575962    -0.09800
C1758       C  0.49475515  0.32901711  0.45530115     0.29100
F1759       F  0.45763726  0.31144282  0.44475362    -0.20300
H1760       H  0.50660154  0.38542245  0.44108544     0.17400
H1761       H  0.56148431  0.30881701  0.48533149     0.17400
F1762       F  0.60925675  0.38229419  0.48444773    -0.20300
C1763       C  0.80886201  0.29284550  0.55833261    -0.21800
C1764       C  0.82516210  0.32428649  0.53704169    -0.09800
C1765       C  0.84760519  0.36181096  0.55003720     0.29100
C1766       C  0.85177850  0.36758972  0.58362758    -0.21800
C1767       C  0.83396827  0.33625772  0.60501343    -0.09800
C1768       C  0.81312648  0.29858724  0.59190428     0.29100
F1769       F  0.79567000  0.26713556  0.61139013    -0.20300
H1770       H  0.79174051  0.26369825  0.54906432     0.17400
H1771       H  0.86827601  0.39679555  0.59289413     0.17400
F1772       F  0.86518965  0.39313695  0.53041661    -0.20300
C1773       C  0.85410431  0.42531353  0.34164339    -0.21800
C1774       C  0.83995012  0.38555345  0.34298080    -0.09800
C1775       C  0.83545939  0.36487332  0.31422559     0.29100
C1776       C  0.84184663  0.38321688  0.28424333    -0.21800
C1777       C  0.85246965  0.42219923  0.28269968    -0.09800
C1778       C  0.86028540  0.44364401  0.31158739     0.29100
F1779       F  0.86872237  0.48086075  0.31074883    -0.20300
H1780       H  0.85705706  0.44136860  0.36373548     0.17400
H1781       H  0.83448906  0.36603368  0.26226132     0.17400
F1782       F  0.82144434  0.32627778  0.31509775    -0.20300
C1783       C  0.59689696  0.17858797  0.45146016    -0.21800
C1784       C  0.58158480  0.20264424  0.45768549    -0.09800
C1785       C  0.60554971  0.23891532  0.47220389     0.29100
C1786       C  0.64501957  0.25276136  0.47610933    -0.21800
C1787       C  0.66130178  0.23100639  0.46548469    -0.09800
C1788       C  0.63662879  0.19267428  0.45548080     0.29100
F1789       F  0.65150630  0.17021403  0.44671789    -0.20300
H1790       H  0.57890212  0.15022844  0.44091809     0.17400
H1791       H  0.66348254  0.28189527  0.48473629     0.17400
F1792       F  0.59141148  0.26218199  0.48042582    -0.20300
C1793       C  0.78384089  0.44188010  0.45290457    -0.21800
C1794       C  0.75969018  0.40163605  0.45515083    -0.09800
C1795       C  0.72078692  0.38675939  0.46449431     0.29100
C1796       C  0.70549986  0.41087778  0.46774381    -0.21800
C1797       C  0.72839126  0.45042727  0.46229327    -0.09800
C1798       C  0.76826358  0.46623046  0.45650104     0.29100
F1799       F  0.79120547  0.50458763  0.45108574    -0.20300
H1800       H  0.81388693  0.45419902  0.44586416     0.17400
H1801       H  0.67473959  0.39804509  0.47165112     0.17400
F1802       F  0.69641277  0.34834793  0.46791296    -0.20300
C1803       C  0.92002175  0.27173693  0.37875854    -0.21800
C1804       C  0.92469234  0.24698398  0.39971482    -0.09800
C1805       C  0.91148198  0.24295688  0.43192675     0.29100
C1806       C  0.89185413  0.26148040  0.44248790    -0.21800
C1807       C  0.88497585  0.28430119  0.42113647    -0.09800
C1808       C  0.90015297  0.29032968  0.38938306     0.29100
F1809       F  0.89249706  0.31100688  0.36784404    -0.20300
H1810       H  0.92896283  0.27420475  0.35357772     0.17400
H1811       H  0.87956430  0.25579963  0.46674190     0.17400
F1812       F  0.91471828  0.21840538  0.45237808    -0.20300
C1813       C  0.59913408  0.12005023  0.08055610    -0.21800
C1814       C  0.62765871  0.13574089  0.10457190    -0.09800
C1815       C  0.66694590  0.15678929  0.09516093     0.29100
C1816       C  0.67723368  0.16252537  0.06230309    -0.21800
C1817       C  0.64873156  0.14662201  0.03824998    -0.09800
C1818       C  0.60945874  0.12493946  0.04768696     0.29100
F1819       F  0.58083915  0.10946907  0.02519168    -0.20300
H1820       H  0.56882201  0.10385402  0.08725639     0.17400
H1821       H  0.70752814  0.17934354  0.05565961     0.17400
F1822       F  0.69547507  0.17302898  0.11768628    -0.20300
C1823       C  0.54067274  0.27076811  0.17193694    -0.21800
C1824       C  0.50396508  0.25541464  0.18628693    -0.09800
C1825       C  0.48374512  0.21628955  0.19500528     0.29100
C1826       C  0.50128396  0.19374922  0.19136280    -0.21800
C1827       C  0.53950295  0.21017655  0.17964378    -0.09800
C1828       C  0.55827361  0.24846682  0.16853348     0.29100
F1829       F  0.59471573  0.26516606  0.15636349    -0.20300
H1830       H  0.55689004  0.30098399  0.16541354     0.17400
H1831       H  0.48635037  0.16452185  0.20052826     0.17400
F1832       F  0.44877050  0.20096894  0.20992231    -0.20300
C1833       C  0.66485245  0.17754961  0.32862177    -0.21800
C1834       C  0.68510841  0.18391164  0.29928973    -0.09800
C1835       C  0.72555490  0.20030763  0.29986342     0.29100
C1836       C  0.74560165  0.21434248  0.32902905    -0.21800
C1837       C  0.72550466  0.21137213  0.35781023    -0.09800
C1838       C  0.68489776  0.19102261  0.35776852     0.29100
F1839       F  0.66484977  0.18912879  0.38498089    -0.20300
H1840       H  0.63366502  0.16465155  0.32868924     0.17400
H1841       H  0.77694395  0.23085332  0.32861350     0.17400
F1842       F  0.74607092  0.20693053  0.27190467    -0.20300
C1843       C  0.49216561  0.13562097  0.28327546    -0.21800
C1844       C  0.51675185  0.12027821  0.28206268    -0.09800
C1845       C  0.52491887  0.10724953  0.31088285     0.29100
C1846       C  0.51101584  0.11239741  0.34075495    -0.21800
C1847       C  0.48922330  0.13084253  0.34205195    -0.09800
C1848       C  0.47861619  0.14105789  0.31302201     0.29100
F1849       F  0.45791711  0.15928233  0.31366107    -0.20300
H1850       H  0.48654104  0.14685837  0.26143195     0.17400
H1851       H  0.52002094  0.10505234  0.36303320     0.17400
F1852       F  0.55007014  0.09401149  0.31058190    -0.20300
C1853       C  0.75416318  0.28664275  0.18938901    -0.21800
C1854       C  0.71582592  0.26826800  0.17845174    -0.09800
C1855       C  0.70225504  0.29014212  0.16302164     0.29100
C1856       C  0.72482618  0.33032501  0.16247858    -0.21800
C1857       C  0.76168987  0.34916964  0.17657375    -0.09800
C1858       C  0.77728408  0.32695037  0.18807032     0.29100
F1859       F  0.81293382  0.34425177  0.20175951    -0.20300
H1860       H  0.76487031  0.27025805  0.20182249     0.17400
H1861       H  0.71243128  0.34680682  0.15316834     0.17400
F1862       F  0.66555223  0.27276034  0.15155580    -0.20300
C1863       C  0.55266991  0.96422345  0.22217424    -0.21800
C1864       C  0.54698379  0.95955503  0.25593335    -0.09800
C1865       C  0.56139019  0.99250687  0.27584004     0.29100
C1866       C  0.58029383  0.02937955  0.26207503    -0.21800
C1867       C  0.58378626  0.03394850  0.22822539    -0.09800
C1868       C  0.57027474  0.00110198  0.20831708     0.29100
F1869       F  0.57311083  0.00465105  0.17550009    -0.20300
H1870       H  0.54120674  0.93917349  0.20639413     0.17400
H1871       H  0.59007237  0.05434301  0.27775935     0.17400
F1872       F  0.55599590  0.98896121  0.30850700    -0.20300
loop_ 
_geom_bond_atom_site_label_1 
_geom_bond_atom_site_label_2 
_geom_bond_distance 
_geom_bond_site_symmetry_2 
_ccdc_geom_bond_type 
O1           C16   1.262       .  A
O1           Al9   1.917       .  S
C2           O12   1.268       .  A
C2            O3   1.262       .  A
C2         C1844   1.468       .  S
O3           Al5   1.898       .  S
O4            C6   1.259       .  A
O4           Al5   1.890       .  S
Al5          O13   1.899       .  S
Al5          O15   1.896       .  S
Al5          O14   1.766       .  S
C6           O19   1.258       .  A
C6         C1834   1.469       .  S
O7           C17   1.261       .  A
O7           Al9   1.909       .  S
O8           C21   1.269       .  A
O8          Al18   1.915       .  S
Al9          O22   1.906       .  S
Al9          O19   1.903       .  S
Al9          O14   1.785       .  S
O10          C17   1.264       .  A
O10         Al18   1.933       .  S
O11          C20   1.266       .  A
O11         Al18   1.950       .  S
O12         Al18   1.928       .  S
O13          C20   1.259       .  A
O14         Al18   1.785       .  S
O15          C16   1.260       .  A
C16        C1854   1.469       .  S
C17        C1867   1.477       .  S
C20        C1827   1.488       .  S
C21          O22   1.264       .  A
C21        C1814   1.476       .  S
O23          C38   1.254       .  A
O23         Al31   1.868       .  S
C24          O34   1.257       .  A
C24          O25   1.267       .  A
C24        C1837   1.458       .  S
O25         Al27   1.947       .  S
O26          C28   1.259       .  A
O26         Al27   1.877       .  S
Al27         O35   1.918       .  S
Al27         O37   1.924       .  S
Al27         O36   1.793       .  S
C28          O41   1.268       .  A
C28        C1807   1.472       .  S
O29          C39   1.251       .  A
O29         Al31   1.890       .  S
O30          C43   1.259       .  A
O30         Al40   1.864       .  S
Al31         O44   1.967       .  S
Al31         O41   1.940       .  S
Al31         O36   1.790       .  S
O32          C39   1.257       .  A
O32         Al40   1.907       .  S
O33          C42   1.261       .  A
O33         Al40   1.912       .  S
O34         Al40   1.871       .  S
O35          C42   1.261       .  A
O36         Al40   1.770       .  S
O37          C38   1.264       .  A
C38        C1764   1.482       .  S
C39        C1774   1.463       .  S
C42        C1787   1.471       .  S
C43          O44   1.274       .  A
C43        C1794   1.488       .  S
O45          C60   1.254       .  A
O45         Al53   1.859       .  S
C46          O56   1.259       .  A
C46          O47   1.268       .  A
C46        C1737   1.458       .  S
O47         Al49   1.943       .  S
O48          C50   1.258       .  A
O48         Al49   1.872       .  S
Al49         O57   1.922       .  S
Al49         O59   1.930       .  S
Al49         O58   1.786       .  S
C50          O63   1.267       .  A
C50        C1717   1.478       .  S
O51          C61   1.252       .  A
O51         Al53   1.894       .  S
O52          C65   1.259       .  A
O52         Al62   1.860       .  S
Al53         O66   1.967       .  S
Al53         O63   1.946       .  S
Al53         O58   1.792       .  S
O54          C61   1.256       .  A
O54         Al62   1.901       .  S
O55          C64   1.259       .  A
O55         Al62   1.904       .  S
O56         Al62   1.873       .  S
O57          C64   1.263       .  A
O58         Al62   1.767       .  S
O59          C60   1.266       .  A
C60        C1724   1.481       .  S
C61        C1744   1.459       .  S
C64        C1797   1.473       .  S
C65          O66   1.275       .  A
C65        C1754   1.478       .  S
O67          C82   1.266       .  A
O67         Al75   1.932       .  S
C68          O78   1.262       .  A
C68          O69   1.261       .  A
C68        C1747   1.459       .  S
O69         Al71   1.898       .  S
O70          C72   1.261       .  A
O70         Al71   1.900       .  S
Al71         O79   1.889       .  S
Al71         O81   1.908       .  S
Al71         O80   1.764       .  S
C72          O85   1.261       .  A
C72        C1697   1.472       .  S
O73          C83   1.265       .  A
O73         Al75   1.922       .  S
O74          C87   1.262       .  A
O74         Al84   1.889       .  S
Al75         O88   1.912       .  S
Al75         O85   1.912       .  S
Al75         O80   1.778       .  S
O76          C83   1.264       .  A
O76         Al84   1.928       .  S
O77          C86   1.264       .  A
O77         Al84   1.936       .  S
O78         Al84   1.910       .  S
O79          C86   1.260       .  A
O80         Al84   1.786       .  S
O81          C82   1.261       .  A
C82        C1824   1.479       .  S
C83        C1707   1.483       .  S
C86        C1687   1.478       .  S
C87          O88   1.265       .  A
C87        C1674   1.477       .  S
O89         C104   1.255       .  A
O89         Al97   1.873       .  S
C90         O100   1.261       .  A
C90          O91   1.271       .  A
C90        C1694   1.464       .  S
O91         Al93   1.953       .  S
O92          C94   1.255       .  A
O92         Al93   1.867       .  S
Al93        O101   1.906       .  S
Al93        O103   1.923       .  S
Al93        O102   1.795       .  S
C94         O107   1.264       .  A
C94        C1664   1.468       .  S
O95         C105   1.253       .  A
O95         Al97   1.903       .  S
O96         C109   1.263       .  A
O96        Al106   1.880       .  S
Al97        O110   1.954       .  S
Al97        O107   1.927       .  S
Al97        O102   1.792       .  S
O98         C105   1.256       .  A
O98        Al106   1.910       .  S
O99         C108   1.256       .  A
O99        Al106   1.904       .  S
O100       Al106   1.873       .  S
O101        C108   1.256       .  A
O102       Al106   1.775       .  S
O103        C104   1.265       .  A
C104       C1654   1.485       .  S
C105       C1847   1.471       .  S
C108       C1757   1.466       .  S
C109        O110   1.273       .  A
C109       C1784   1.482       .  S
O111        C126   1.265       .  A
O111       Al119   1.924       .  S
C112        O122   1.266       .  A
C112        O113   1.260       .  A
C112       C1777   1.461       .  S
O113       Al115   1.892       .  S
O114        C116   1.260       .  A
O114       Al115   1.900       .  S
Al115       O123   1.897       .  S
Al115       O125   1.887       .  S
Al115       O124   1.768       .  S
C116        O129   1.257       .  A
C116       C1734   1.469       .  S
O117        C127   1.265       .  A
O117       Al119   1.924       .  S
O118        C131   1.268       .  A
O118       Al128   1.913       .  S
Al119       O132   1.904       .  S
Al119       O129   1.894       .  S
Al119       O124   1.783       .  S
O120        C127   1.262       .  A
O120       Al128   1.917       .  S
O121        C130   1.262       .  A
O121       Al128   1.931       .  S
O122       Al128   1.922       .  S
O123        C130   1.259       .  A
O124       Al128   1.785       .  S
O125        C126   1.260       .  A
C126       C1684   1.470       .  S
C127       C1644   1.482       .  S
C130       C1857   1.478       .  S
C131        O132   1.264       .  A
C131       C1634   1.475       .  S
O133        C148   1.261       .  A
O133       Al141   1.907       .  S
C134        O144   1.265       .  A
C134        O135   1.263       .  A
C134       C1587   1.464       .  S
O135       Al137   1.903       .  S
O136        C138   1.259       .  A
O136       Al137   1.895       .  S
Al137       O145   1.903       .  S
Al137       O147   1.903       .  S
Al137       O146   1.766       .  S
C138        O151   1.258       .  A
C138       C1597   1.464       .  S
O139        C149   1.261       .  A
O139       Al141   1.907       .  S
O140        C153   1.264   1_556  A
O140       Al150   1.896       .  S
Al141       O154   1.903       .  S
Al141       O151   1.903       .  S
Al141       O146   1.785       .  S
O142        C149   1.262       .  A
O142       Al150   1.920       .  S
O143        C152   1.262       .  A
O143       Al150   1.928       .  S
O144       Al150   1.915       .  S
O145        C152   1.260       .  A
O146       Al150   1.785       .  S
O147        C148   1.262       .  A
C148       C1617   1.465       .  S
C149       C1624   1.471       .  S
C152       C1604   1.480       .  S
C153        O154   1.263   1_554  A
C153       C1677   1.459       .  S
O155        C170   1.256       .  A
O155       Al163   1.871       .  S
C156        O166   1.263       .  A
C156        O157   1.272       .  A
C156       C1594   1.458       .  S
O157       Al159   1.944       .  S
O158        C160   1.257       .  A
O158       Al159   1.876       .  S
Al159       O167   1.917       .  S
Al159       O169   1.915       .  S
Al159       O168   1.790       .  S
C160        O173   1.268       .  A
C160       C1574   1.489       .  S
O161        C171   1.253       .  A
O161       Al163   1.903       .  S
O162        C175   1.263       .  A
O162       Al172   1.871       .  S
Al163       O176   1.984       .  S
Al163       O173   1.951       .  S
Al163       O168   1.788       .  S
O164        C171   1.256       .  A
O164       Al172   1.916       .  S
O165        C174   1.255       .  A
O165       Al172   1.908       .  S
O166       Al172   1.871       .  S
O167        C174   1.257       .  A
O168       Al172   1.775       .  S
O169        C170   1.264       .  A
C170       C1727   1.481       .  S
C171       C1554   1.469       .  S
C174       C1547   1.472       .  S
C175        O176   1.280       .  A
C175       C1564   1.486       .  S
O177        C192   1.256       .  A
O177       Al185   1.872       .  S
C178        O188   1.261       .  A
C178        O179   1.271       .  A
C178       C1527   1.459       .  S
O179       Al181   1.945       .  S
O180        C182   1.256       .  A
O180       Al181   1.866       .  S
Al181       O189   1.912       .  S
Al181       O191   1.923       .  S
Al181       O190   1.789       .  S
C182        O195   1.265       .  A
C182       C1534   1.481       .  S
O183        C193   1.252       .  A
O183       Al185   1.899       .  S
O184        C197   1.261       .  A
O184       Al194   1.869       .  S
Al185       O198   1.968       .  S
Al185       O195   1.940       .  S
Al185       O190   1.793       .  S
O186        C193   1.256       .  A
O186       Al194   1.907       .  S
O187        C196   1.256       .  A
O187       Al194   1.903       .  S
O188       Al194   1.874       .  S
O189        C196   1.257       .  A
O190       Al194   1.773       .  S
O191        C192   1.265       .  A
C192       C1657   1.485       .  S
C193       C1584   1.464       .  S
C196       C1514   1.470       .  S
C197        O198   1.276       .  A
C197       C1544   1.478       .  S
O199        C214   1.263       .  A
O199       Al207   1.918       .  S
C200        O210   1.267       .  A
C200        O201   1.260       .  A
C200       C1497   1.469       .  S
O201       Al203   1.890       .  S
O202        C204   1.259       .  A
O202       Al203   1.892       .  S
Al203       O211   1.895       .  S
Al203       O213   1.893       .  S
Al203       O212   1.765       .  S
C204        O217   1.260       .  A
C204       C1524   1.471       .  S
O205        C215   1.262       .  A
O205       Al207   1.908       .  S
O206        C219   1.268   1_556  A
O206       Al216   1.914       .  S
Al207       O220   1.905       .  S
Al207       O217   1.911       .  S
Al207       O212   1.785       .  S
O208        C215   1.263       .  A
O208       Al216   1.924       .  S
O209        C218   1.265       .  A
O209       Al216   1.945       .  S
O210       Al216   1.932       .  S
O211        C218   1.260       .  A
O212       Al216   1.784       .  S
O213        C214   1.260       .  A
C214       C1607   1.466       .  S
C215       C1507   1.469       .  S
C218       C1484   1.485       .  S
C219        O220   1.263   1_554  A
C219       C1817   1.478       .  S
O221        C236   1.252       .  A
O221       Al229   1.866       .  S
C222        O232   1.258       .  A
C222        O223   1.269       .  A
C222       C1467   1.458       .  S
O223       Al225   1.948       .  S
O224        C226   1.257       .  A
O224       Al225   1.856       .  S
Al225       O233   1.915       .  S
Al225       O235   1.922       .  S
Al225       O234   1.790       .  S
C226        O239   1.270       .  A
C226       C1474   1.487       .  S
O227        C237   1.251       .  A
O227       Al229   1.896       .  S
O228        C241   1.260       .  A
O228       Al238   1.856       .  S
Al229       O242   1.974       .  S
Al229       O239   1.960       .  S
Al229       O234   1.797       .  S
O230        C237   1.257       .  A
O230       Al238   1.908       .  S
O231        C240   1.260       .  A
O231       Al238   1.918       .  S
O232       Al238   1.872       .  S
O233        C240   1.259       .  A
O234       Al238   1.772       .  S
O235        C236   1.263       .  A
C236       C1767   1.484       .  S
C237       C1494   1.470       .  S
C240       C1567   1.474       .  S
C241        O242   1.277       .  A
C241       C1517   1.483       .  S
O243        C258   1.264       .  A
O243       Al251   1.932       .  S
C244        O254   1.269       .  A
C244        O245   1.261       .  A
C244       C1557   1.471       .  S
O245       Al247   1.900       .  S
O246        C248   1.260       .  A
O246       Al247   1.882       .  S
Al247       O255   1.893       .  S
Al247       O257   1.887       .  S
Al247       O256   1.766       .  S
C248        O261   1.261       .  A
C248       C1464   1.473       .  S
O249        C259   1.262       .  A
O249       Al251   1.921       .  S
O250        C263   1.269   1_556  A
O250       Al260   1.911       .  S
Al251       O264   1.910       .  S
Al251       O261   1.911       .  S
Al251       O256   1.784       .  S
O252        C259   1.259       .  A
O252       Al260   1.914       .  S
O253        C262   1.262       .  A
O253       Al260   1.930       .  S
O254       Al260   1.936       .  S
O255        C262   1.259       .  A
O256       Al260   1.785       .  S
O257        C258   1.257       .  A
C258       C1487   1.476       .  S
C259       C1457   1.476       .  S
C262       C1614   1.475       .  S
C263        O264   1.266   1_554  A
C263       C1637   1.481       .  S
O265        C280   1.265       .  A
O265       Al273   1.923       .  S
C266        O276   1.264       .  A
C266        O267   1.259       .  A
C266       C1424   1.460       .  S
O267       Al269   1.887       .  S
O268        C270   1.260       .  A
O268       Al269   1.895       .  S
Al269       O277   1.893       .  S
Al269       O279   1.891       .  S
Al269       O278   1.765       .  S
C270        O283   1.259       .  A
C270       C1414   1.472       .  S
O271        C281   1.265       .  A
O271       Al273   1.915       .  S
O272        C285   1.266       .  A
O272       Al282   1.909       .  S
Al273       O286   1.899       .  S
Al273       O283   1.911       .  S
Al273       O278   1.783       .  S
O274        C281   1.265       .  A
O274       Al282   1.923       .  S
O275        C284   1.265       .  A
O275       Al282   1.942       .  S
O276       Al282   1.920       .  S
O277        C284   1.260       .  A
O278       Al282   1.784       .  S
O279        C280   1.260       .  A
C280       C1437   1.468       .  S
C281       C1444   1.478       .  S
C284       C1404   1.483       .  S
C285        O286   1.262       .  A
C285       C1394   1.473       .  S
O287        C302   1.252       .  A
O287       Al295   1.857       .  S
C288        O298   1.261       .  A
C288        O289   1.273       .  A
C288       C1364   1.461       .  S
O289       Al291   1.955       .  S
O290        C292   1.254       .  A
O290       Al291   1.851       .  S
Al291       O299   1.903       .  S
Al291       O301   1.927       .  S
Al291       O300   1.781       .  S
C292        O305   1.270       .  A
C292       C1477   1.489       .  S
O293        C303   1.250       .  A
O293       Al295   1.887       .  S
O294        C307   1.261       .  A
O294       Al304   1.858       .  S
Al295       O308   1.981       .  S
Al295       O305   1.962       .  S
Al295       O300   1.787       .  S
O296        C303   1.257       .  A
O296       Al304   1.911       .  S
O297        C306   1.259       .  A
O297       Al304   1.918       .  S
O298       Al304   1.868       .  S
O299        C306   1.255       .  A
O300       Al304   1.769       .  S
O301        C302   1.265       .  A
C302       C1354   1.477       .  S
C303       C1427   1.459       .  S
C306       C1374   1.466       .  S
C307        O308   1.279       .  A
C307       C1387   1.484       .  S
O309        C324   1.254       .  A
O309       Al317   1.868       .  S
C310        O320   1.262       .  A
C310        O311   1.269       .  A
C310       C1324   1.456       .  S
O311       Al313   1.940       .  S
O312        C314   1.256       .  A
O312       Al313   1.865       .  S
Al313       O321   1.925       .  S
Al313       O323   1.924       .  S
Al313       O322   1.786       .  S
C314        O327   1.265       .  A
C314       C1537   1.478       .  S
O315        C325   1.253       .  A
O315       Al317   1.900       .  S
O316        C329   1.262       .  A
O316       Al326   1.868       .  S
Al317       O330   1.956       .  S
Al317       O327   1.942       .  S
Al317       O322   1.795       .  S
O318        C325   1.257       .  A
O318       Al326   1.915       .  S
O319        C328   1.258       .  A
O319       Al326   1.912       .  S
O320       Al326   1.875       .  S
O321        C328   1.261       .  A
O322       Al326   1.771       .  S
O323        C324   1.266       .  A
C324       C1314   1.484       .  S
C325       C1344   1.469       .  S
C328       C1334   1.478       .  S
C329        O330   1.274       .  A
C329       C1377   1.470       .  S
O331        C346   1.264       .  A
O331       Al339   1.928       .  S
C332        O342   1.269       .  A
C332        O333   1.262       .  A
C332       C1347   1.468       .  S
O333       Al335   1.896       .  S
O334        C336   1.259       .  A
O334       Al335   1.894       .  S
Al335       O343   1.900       .  S
Al335       O345   1.894       .  S
Al335       O344   1.766       .  S
C336        O349   1.258       .  A
C336       C1367   1.465       .  S
O337        C347   1.264       .  A
O337       Al339   1.923       .  S
O338        C351   1.269       .  A
O338       Al348   1.915       .  S
Al339       O352   1.901       .  S
Al339       O349   1.901       .  S
Al339       O344   1.784       .  S
O340        C347   1.262       .  A
O340       Al348   1.923       .  S
O341        C350   1.262       .  A
O341       Al348   1.931       .  S
O342       Al348   1.931       .  S
O343        C350   1.259       .  A
O344       Al348   1.784       .  S
O345        C346   1.260       .  A
C346       C1407   1.475       .  S
C347       C1304   1.479       .  S
C350       C1294   1.476       .  S
C351        O352   1.263       .  A
C351       C1284   1.475       .  S
O353        C368   1.257       .  A
O353       Al361   1.880       .  S
C354        O364   1.259       .  A
C354        O355   1.270       .  A
C354       C1417   1.461       .  S
O355       Al357   1.951       .  S
O356        C358   1.256       .  A
O356       Al357   1.871       .  S
Al357       O365   1.915       .  S
Al357       O367   1.940       .  S
Al357       O366   1.791       .  S
C358        O371   1.270       .  A
C358       C1577   1.488       .  S
O359        C369   1.254       .  A
O359       Al361   1.908       .  S
O360        C373   1.260       .  A
O360       Al370   1.867       .  S
Al361       O374   1.983       .  S
Al361       O371   1.962       .  S
Al361       O366   1.792       .  S
O362        C369   1.256       .  A
O362       Al370   1.907       .  S
O363        C372   1.258       .  A
O363       Al370   1.905       .  S
O364       Al370   1.871       .  S
O365        C372   1.259       .  A
O366       Al370   1.772       .  S
O367        C368   1.268       .  A
C368       C1264   1.495       .  S
C369       C1274   1.472       .  S
C372       C1384   1.469       .  S
C373        O374   1.279       .  A
C373       C1337   1.490       .  S
O375        C390   1.262       .  A
O375       Al383   1.914       .  S
C376        O386   1.267       .  A
C376        O377   1.260       .  A
C376       C1277   1.472       .  S
O377       Al379   1.898       .  S
O378        C380   1.261       .  A
O378       Al379   1.894       .  S
Al379       O387   1.896       .  S
Al379       O389   1.899       .  S
Al379       O388   1.767       .  S
C380        O393   1.259       .  A
C380       C1327   1.466       .  S
O381        C391   1.262       .  A
O381       Al383   1.908       .  S
O382        C395   1.265       .  A
O382       Al392   1.905       .  S
Al383       O396   1.899       .  S
Al383       O393   1.901       .  S
Al383       O388   1.784       .  S
O384        C391   1.264       .  A
O384       Al392   1.922       .  S
O385        C394   1.264       .  A
O385       Al392   1.931       .  S
O386       Al392   1.931       .  S
O387        C394   1.261       .  A
O388       Al392   1.783       .  S
O389        C390   1.260       .  A
C390       C1297   1.465       .  S
C391       C1254   1.475       .  S
C394       C1434   1.479       .  S
C395        O396   1.261       .  A
C395       C1247   1.464       .  S
O397        C412   1.254       .  A
O397       Al405   1.855   1_556  S
C398        O408   1.257       .  A
C398        O399   1.270       .  A
C398       C1214   1.464       .  S
O399       Al401   1.956       .  S
O400        C402   1.257       .  A
O400       Al401   1.874       .  S
Al401       O409   1.908       .  S
Al401       O411   1.947   1_554  S
Al401       O410   1.785       .  S
C402        O415   1.268       .  A
C402       C1197   1.483       .  S
O403        C413   1.255       .  A
O403       Al405   1.893       .  S
O404        C417   1.258       .  A
O404       Al414   1.870       .  S
Al405       O418   1.972       .  S
Al405       O415   1.957       .  S
Al405       O410   1.789       .  S
O406        C413   1.262       .  A
O406       Al414   1.917       .  S
O407        C416   1.261       .  A
O407       Al414   1.914       .  S
O408       Al414   1.869       .  S
O409        C416   1.259       .  A
O410       Al414   1.766       .  S
O411        C412   1.271       .  A
C412       C1317   1.484       .  S
C413       C1224   1.464       .  S
C416       C1207   1.469       .  S
C417        O418   1.274       .  A
C417       C1234   1.486       .  S
O419        C434   1.265       .  A
O419       Al427   1.928       .  S
C420        O430   1.265       .  A
C420        O421   1.262       .  A
C420       C1227   1.464       .  S
O421       Al423   1.898       .  S
O422        C424   1.260       .  A
O422       Al423   1.894       .  S
Al423       O431   1.896       .  S
Al423       O433   1.902       .  S
Al423       O432   1.763       .  S
C424        O437   1.260       .  A
C424       C1177   1.472       .  S
O425        C435   1.263       .  A
O425       Al427   1.916       .  S
O426        C439   1.266       .  A
O426       Al436   1.906       .  S
Al427       O440   1.907       .  S
Al427       O437   1.910       .  S
Al427       O432   1.783       .  S
O428        C435   1.264       .  A
O428       Al436   1.925       .  S
O429        C438   1.264       .  A
O429       Al436   1.937       .  S
O430       Al436   1.920       .  S
O431        C438   1.260       .  A
O432       Al436   1.784       .  S
O433        C434   1.262       .  A
C434       C1187   1.476       .  S
C435       C1864   1.479       .  S
C438       C1164   1.482       .  S
C439        O440   1.264       .  A
C439       C1244   1.480       .  S
O441        C456   1.264       .  A
O441       Al449   1.922       .  S
C442        O452   1.265       .  A
C442        O443   1.262       .  A
C442       C1154   1.459       .  S
O443       Al445   1.898       .  S
O444        C446   1.260       .  A
O444       Al445   1.896       .  S
Al445       O453   1.896       .  S
Al445       O455   1.892       .  S
Al445       O454   1.763       .  S
C446        O459   1.259       .  A
C446       C1217   1.471       .  S
O447        C457   1.263       .  A
O447       Al449   1.917       .  S
O448        C461   1.268       .  A
O448       Al458   1.907       .  S
Al449       O462   1.907       .  S
Al449       O459   1.907       .  S
Al449       O454   1.782       .  S
O450        C457   1.264       .  A
O450       Al458   1.931       .  S
O451        C460   1.265       .  A
O451       Al458   1.945       .  S
O452       Al458   1.915       .  S
O453        C460   1.259       .  A
O454       Al458   1.785       .  S
O455        C456   1.260       .  A
C456       C1167   1.470       .  S
C457       C1647   1.479       .  S
C460       C1147   1.483       .  S
C461        O462   1.265       .  A
C461       C1287   1.473       .  S
O463        C478   1.254       .  A
O463       Al471   1.856   1_556  S
C464        O474   1.261       .  A
C464        O465   1.269       .  A
C464       C1114   1.454       .  S
O465       Al467   1.937       .  S
O466        C468   1.255       .  A
O466       Al467   1.872       .  S
Al467       O475   1.912       .  S
Al467       O477   1.929   1_554  S
Al467       O476   1.783       .  S
C468        O481   1.266       .  A
C468       C1137   1.481       .  S
O469        C479   1.252       .  A
O469       Al471   1.892       .  S
O470        C483   1.260       .  A
O470       Al480   1.864       .  S
Al471       O484   1.975       .  S
Al471       O481   1.949       .  S
Al471       O476   1.788       .  S
O472        C479   1.259       .  A
O472       Al480   1.919       .  S
O473        C482   1.259       .  A
O473       Al480   1.910       .  S
O474       Al480   1.876       .  S
O475        C482   1.258       .  A
O476       Al480   1.770       .  S
O477        C478   1.267       .  A
C478       C1357   1.476       .  S
C479       C1157   1.461       .  S
C482       C1124   1.470       .  S
C483        O484   1.276       .  A
C483       C1204   1.480       .  S
O485        C500   1.259       .  A
O485       Al493   1.885   1_556  S
C486        O496   1.259       .  A
C486        O487   1.270       .  A
C486       C1174   1.461       .  S
O487       Al489   1.952       .  S
O488        C490   1.258       .  A
O488       Al489   1.879       .  S
Al489       O497   1.920       .  S
Al489       O499   1.931   1_554  S
Al489       O498   1.791       .  S
C490        O503   1.263       .  A
C490       C1107   1.468       .  S
O491        C501   1.254       .  A
O491       Al493   1.910       .  S
O492        C505   1.261       .  A
O492       Al502   1.869       .  S
Al493       O506   1.957       .  S
Al493       O503   1.923       .  S
Al493       O498   1.794       .  S
O494        C501   1.256       .  A
O494       Al502   1.898       .  S
O495        C504   1.256       .  A
O495       Al502   1.899       .  S
O496       Al502   1.871       .  S
O497        C504   1.260       .  A
O498       Al502   1.772       .  S
O499        C500   1.266       .  A
C500       C1267   1.493       .  S
C501       C1097   1.471       .  S
C504       C1237   1.470       .  S
C505        O506   1.273       .  A
C505       C1127   1.476       .  S
O507        C522   1.264       .  A
O507       Al515   1.930       .  S
C508        O518   1.266       .  A
C508        O509   1.263       .  A
C508       C1094   1.470       .  S
O509       Al511   1.900       .  S
O510        C512   1.259       .  A
O510       Al511   1.881       .  S
Al511       O519   1.889       .  S
Al511       O521   1.891       .  S
Al511       O520   1.763       .  S
C512        O525   1.259       .  A
C512       C1117   1.464       .  S
O513        C523   1.264       .  A
O513       Al515   1.924       .  S
O514        C527   1.267       .  A
O514       Al524   1.898       .  S
Al515       O528   1.907       .  S
Al515       O525   1.904       .  S
Al515       O520   1.785       .  S
O516        C523   1.264       .  A
O516       Al524   1.928       .  S
O517        C526   1.266       .  A
O517       Al524   1.952       .  S
O518       Al524   1.923       .  S
O519        C526   1.258       .  A
O520       Al524   1.786       .  S
O521        C522   1.258       .  A
C522       C1144   1.474       .  S
C523       C1704   1.484       .  S
C526       C1184   1.486       .  S
C527        O528   1.264       .  A
C527       C1397   1.471       .  S
O529        C544   1.255       .  A
O529       Al537   1.871       .  S
C530        O540   1.260       .  A
C530        O531   1.272       .  A
C530       C1054   1.461       .  S
O531       Al533   1.955       .  S
O532        C534   1.256       .  A
O532       Al533   1.869       .  S
Al533       O541   1.914       .  S
Al533       O543   1.933       .  S
Al533       O542   1.784       .  S
C534        O547   1.267       .  A
C534       C1804   1.472       .  S
O535        C545   1.253       .  A
O535       Al537   1.906   1_455  S
O536        C549   1.261   1_655  A
O536       Al546   1.860       .  S
Al537       O550   1.974   1_655  S
Al537       O547   1.945       .  S
Al537       O542   1.785       .  S
O538        C545   1.257   1_655  A
O538       Al546   1.913       .  S
O539        C548   1.259       .  A
O539       Al546   1.915       .  S
O540       Al546   1.870       .  S
O541        C548   1.259       .  A
O542       Al546   1.770       .  S
O543        C544   1.267       .  A
C544       C1044   1.485       .  S
C545       C1064   1.468       .  S
C548       C1074   1.469       .  S
C549        O550   1.278       .  A
C549       C1084   1.482       .  S
O551        C566   1.265       .  A
O551       Al559   1.929       .  S
C552        O562   1.267       .  A
C552        O553   1.261       .  A
C552       C1067   1.467       .  S
O553       Al555   1.901       .  S
O554        C556   1.259       .  A
O554       Al555   1.897       .  S
Al555       O563   1.892       .  S
Al555       O565   1.896       .  S
Al555       O564   1.765       .  S
C556        O569   1.258       .  A
C556       C1017   1.463       .  S
O557        C567   1.263       .  A
O557       Al559   1.917       .  S
O558        C571   1.268       .  A
O558       Al568   1.911       .  S
Al559       O572   1.903       .  S
Al559       O569   1.901       .  S
Al559       O564   1.785       .  S
O560        C567   1.262       .  A
O560       Al568   1.923       .  S
O561        C570   1.263       .  A
O561       Al568   1.937       .  S
O562       Al568   1.926       .  S
O563        C570   1.258       .  A
O564       Al568   1.788       .  S
O565        C566   1.261       .  A
C566       C1037   1.478       .  S
C567       C1447   1.475       .  S
C570       C1027   1.477   1_455  S
C571        O572   1.264       .  A
C571       C1004   1.473       .  S
O573        C588   1.255   1_565  A
O573       Al581   1.855       .  S
C574        O584   1.261       .  A
C574        O575   1.268       .  A
C574       C1014   1.463       .  S
O575       Al577   1.939       .  S
O576        C578   1.256       .  A
O576       Al577   1.872       .  S
Al577       O585   1.913       .  S
Al577       O587   1.932       .  S
Al577       O586   1.786       .  S
C578        O591   1.264       .  A
C578       C1667   1.469       .  S
O579        C589   1.253       .  A
O579       Al581   1.895       .  S
O580        C593   1.259       .  A
O580       Al590   1.864   1_565  S
Al581       O594   1.963       .  S
Al581       O591   1.935   1_565  S
Al581       O586   1.790   1_565  S
O582        C589   1.259       .  A
O582       Al590   1.914   1_565  S
O583        C592   1.258       .  A
O583       Al590   1.901       .  S
O584       Al590   1.875       .  S
O585        C592   1.260       .  A
O586       Al590   1.766       .  S
O587        C588   1.267       .  A
C588        C974   1.478       .  S
C589        C984   1.464       .  S
C592       C1087   1.468       .  S
C593        O594   1.273       .  A
C593        C994   1.476       .  S
O595        C610   1.262       .  A
O595       Al603   1.915       .  S
C596        O606   1.266       .  A
C596        O597   1.263       .  A
C596        C954   1.465       .  S
O597       Al599   1.896       .  S
O598        C600   1.258       .  A
O598       Al599   1.889   1_545  S
Al599       O607   1.897       .  S
Al599       O609   1.903   1_565  S
Al599       O608   1.762       .  S
C600        O613   1.261       .  A
C600       C1057   1.467       .  S
O601        C611   1.260       .  A
O601       Al603   1.905   1_565  S
O602        C615   1.265       .  A
O602       Al612   1.903       .  S
Al603       O616   1.908   1_545  S
Al603       O613   1.913       .  S
Al603       O608   1.783   1_545  S
O604        C611   1.264       .  A
O604       Al612   1.928       .  S
O605        C614   1.264       .  A
O605       Al612   1.938       .  S
O606       Al612   1.922       .  S
O607        C614   1.261       .  A
O608       Al612   1.785       .  S
O609        C610   1.261       .  A
C610       C1024   1.469       .  S
C611       C1257   1.472       .  S
C614        C964   1.484       .  S
C615        O616   1.265       .  A
C615        C944   1.474       .  S
O617        C632   1.256       .  A
O617       Al625   1.869       .  S
C618        O628   1.260       .  A
C618        O619   1.271       .  A
C618        C937   1.465       .  S
O619       Al621   1.950       .  S
O620        C622   1.255       .  A
O620       Al621   1.864       .  S
Al621       O629   1.905       .  S
Al621       O631   1.917       .  S
Al621       O630   1.785       .  S
C622        O635   1.267       .  A
C622       C1714   1.477       .  S
O623        C633   1.254       .  A
O623       Al625   1.897       .  S
O624        C637   1.261       .  A
O624       Al634   1.871       .  S
Al625       O638   1.969       .  S
Al625       O635   1.947       .  S
Al625       O630   1.794       .  S
O626        C633   1.259       .  A
O626       Al634   1.908       .  S
O627        C636   1.258       .  A
O627       Al634   1.912       .  S
O628       Al634   1.875       .  S
O629        C636   1.255       .  A
O630       Al634   1.770       .  S
O631        C632   1.265       .  A
C632        C924   1.476       .  S
C633        C957   1.463       .  S
C636        C997   1.469       .  S
C637        O638   1.276       .  A
C637       C1077   1.483       .  S
O639        C654   1.264       .  A
O639       Al647   1.923       .  S
C640        O650   1.264       .  A
C640        O641   1.259       .  A
C640        C987   1.464       .  S
O641       Al643   1.889   1_455  S
O642        C644   1.260       .  A
O642       Al643   1.899       .  S
Al643       O651   1.888   1_655  S
Al643       O653   1.895       .  S
Al643       O652   1.766   1_655  S
C644        O657   1.262       .  A
C644        C934   1.472       .  S
O645        C655   1.265   1_655  A
O645       Al647   1.918       .  S
O646        C659   1.266   1_455  A
O646       Al656   1.912       .  S
Al647       O660   1.911       .  S
Al647       O657   1.919       .  S
Al647       O652   1.783   1_655  S
O648        C655   1.266       .  A
O648       Al656   1.928       .  S
O649        C658   1.267       .  A
O649       Al656   1.955       .  S
O650       Al656   1.925       .  S
O651        C658   1.260       .  A
O652       Al656   1.785       .  S
O653        C654   1.260       .  A
C654        C967   1.470       .  S
C655       C1307   1.482       .  S
C658       C1034   1.488       .  S
C659        O660   1.264       .  A
C659        C914   1.480       .  S
O661        C676   1.263       .  A
O661       Al669   1.916   1_455  S
C662        O672   1.265       .  A
C662        O663   1.262       .  A
C662        C874   1.464       .  S
O663       Al665   1.899       .  S
O664        C666   1.258   1_655  A
O664       Al665   1.890       .  S
Al665       O673   1.893       .  S
Al665       O675   1.899   1_655  S
Al665       O674   1.768       .  S
C666        O679   1.260       .  A
C666        C894   1.470       .  S
O667        C677   1.263       .  A
O667       Al669   1.916       .  S
O668        C681   1.268       .  A
O668       Al678   1.913       .  S
Al669       O682   1.913       .  S
Al669       O679   1.908   1_655  S
Al669       O674   1.782       .  S
O670        C677   1.263       .  A
O670       Al678   1.924       .  S
O671        C680   1.264       .  A
O671       Al678   1.940       .  S
O672       Al678   1.921       .  S
O673        C680   1.259       .  A
O674       Al678   1.786       .  S
O675        C676   1.260       .  A
C676        C904   1.468       .  S
C677       C1454   1.480       .  S
C680        C884   1.480       .  S
C681        O682   1.266       .  A
C681        C917   1.482       .  S
O683        C698   1.254   1_545  A
O683       Al691   1.869       .  S
C684        O694   1.263       .  A
C684        O685   1.270       .  A
C684        C897   1.457       .  S
O685       Al687   1.939       .  S
O686        C688   1.256       .  A
O686       Al687   1.865       .  S
Al687       O695   1.910       .  S
Al687       O697   1.911       .  S
Al687       O696   1.785       .  S
C688        O701   1.269   1_565  A
C688       C1194   1.481       .  S
O689        C699   1.251       .  A
O689       Al691   1.895       .  S
O690        C703   1.263       .  A
O690       Al700   1.870   1_545  S
Al691       O704   1.974       .  S
Al691       O701   1.952       .  S
Al691       O696   1.788   1_545  S
O692        C699   1.255       .  A
O692       Al700   1.905   1_545  S
O693        C702   1.257       .  A
O693       Al700   1.910       .  S
O694       Al700   1.882       .  S
O695        C702   1.257       .  A
O696       Al700   1.773       .  S
O697        C698   1.263       .  A
C698        C977   1.478       .  S
C699        C857   1.460       .  S
C702        C844   1.467       .  S
C703        O704   1.278       .  A
C703        C864   1.484       .  S
O705        C720   1.264       .  A
O705       Al713   1.915       .  S
C706        O716   1.265       .  A
C706        O707   1.262       .  A
C706        C854   1.459       .  S
O707       Al709   1.898       .  S
O708        C710   1.259       .  A
O708       Al709   1.893       .  S
Al709       O717   1.900       .  S
Al709       O719   1.894       .  S
Al709       O718   1.762       .  S
C710        O723   1.258       .  A
C710        C827   1.473       .  S
O711        C721   1.263       .  A
O711       Al713   1.913       .  S
O712        C725   1.268       .  A
O712       Al722   1.907       .  S
Al713       O726   1.909       .  S
Al713       O723   1.906       .  S
Al713       O718   1.784       .  S
O714        C721   1.263       .  A
O714       Al722   1.922       .  S
O715        C724   1.263       .  A
O715       Al722   1.938       .  S
O716       Al722   1.914       .  S
O717        C724   1.258       .  A
O718       Al722   1.784       .  S
O719        C720   1.262       .  A
C720        C834   1.467       .  S
C721       C1627   1.473       .  S
C724        C907   1.481       .  S
C725        O726   1.265       .  A
C725       C1007   1.476       .  S
O727        C742   1.262       .  A
O727       Al735   1.920       .  S
C728        O738   1.267       .  A
C728        O729   1.261       .  A
C728        C817   1.464       .  S
O729       Al731   1.898       .  S
O730        C732   1.259   1_545  A
O730       Al731   1.888       .  S
Al731       O739   1.889       .  S
Al731       O741   1.894   1_545  S
Al731       O740   1.765       .  S
C732        O745   1.258       .  A
C732        C804   1.464       .  S
O733        C743   1.263       .  A
O733       Al735   1.919   1_545  S
O734        C747   1.266       .  A
O734       Al744   1.902       .  S
Al735       O748   1.899       .  S
Al735       O745   1.894       .  S
Al735       O740   1.784   1_565  S
O736        C743   1.260       .  A
O736       Al744   1.906       .  S
O737        C746   1.260       .  A
O737       Al744   1.923       .  S
O738       Al744   1.923       .  S
O739        C746   1.259       .  A
O740       Al744   1.784       .  S
O741        C742   1.259       .  A
C742        C887   1.470       .  S
C743       C1504   1.479       .  S
C746        C837   1.474       .  S
C747        O748   1.263   1_545  A
C747        C947   1.467       .  S
O749        C764   1.256       .  A
O749       Al757   1.871       .  S
C750        O760   1.261       .  A
C750        O751   1.273       .  A
C750        C824   1.460       .  S
O751       Al753   1.953       .  S
O752        C754   1.257       .  A
O752       Al753   1.876       .  S
Al753       O761   1.919       .  S
Al753       O763   1.933       .  S
Al753       O762   1.791   1_455  S
C754        O767   1.267   1_455  A
C754       C1134   1.481       .  S
O755        C765   1.252       .  A
O755       Al757   1.899       .  S
O756        C769   1.261       .  A
O756       Al766   1.870       .  S
Al757       O770   1.978       .  S
Al757       O767   1.942       .  S
Al757       O762   1.787       .  S
O758        C765   1.256       .  A
O758       Al766   1.910       .  S
O759        C768   1.256       .  A
O759       Al766   1.902   1_455  S
O760       Al766   1.871   1_455  S
O761        C768   1.258       .  A
O762       Al766   1.773       .  S
O763        C764   1.267   1_455  A
C764       C1047   1.487       .  S
C765        C814   1.464       .  S
C768        C867   1.471       .  S
C769        O770   1.278       .  A
C769        C797   1.484       .  S
O771        C786   1.254       .  A
O771       Al779   1.861       .  S
C772        O782   1.261       .  A
C772        O773   1.265       .  A
C772        C807   1.452       .  S
O773       Al775   1.926       .  S
O774        C776   1.257       .  A
O774       Al775   1.867       .  S
Al775       O783   1.920       .  S
Al775       O785   1.921       .  S
Al775       O784   1.788       .  S
C776        O789   1.267       .  A
C776       C1104   1.468       .  S
O777        C787   1.253       .  A
O777       Al779   1.895       .  S
O778        C791   1.261       .  A
O778       Al788   1.870       .  S
Al779       O792   1.955       .  S
Al779       O789   1.941       .  S
Al779       O784   1.788       .  S
O780        C787   1.258       .  A
O780       Al788   1.911       .  S
O781        C790   1.262       .  A
O781       Al788   1.919       .  S
O782       Al788   1.883       .  S
O783        C790   1.263       .  A
O784       Al788   1.767       .  S
O785        C786   1.263       .  A
C786        C927   1.477       .  S
C787        C877   1.465       .  S
C790        C794   1.474       .  S
C791        O792   1.273       .  A
C791        C847   1.476       .  S
C793        C794   1.406       .  A
C793        C798   1.405   1_565  A
C793        H800   1.088       .  S
C794        C795   1.401       .  A
C795        C796   1.399   1_565  A
C795        F802   1.357       .  S
C796        C797   1.408       .  A
C796        H801   1.087       .  S
C797        C798   1.407       .  A
C798        F799   1.357       .  S
C803        C804   1.406       .  A
C803        C808   1.393       .  A
C803        H810   1.084       .  S
C804        C805   1.404   1_556  A
C805        C806   1.390       .  A
C805        F812   1.358   1_565  S
C806        C807   1.399       .  A
C806        H811   1.086       .  S
C807        C808   1.399   1_554  A
C808        F809   1.357       .  S
C813        C814   1.400   1_556  A
C813        C818   1.397       .  A
C813        H820   1.084       .  S
C814        C815   1.403       .  A
C815        C816   1.400   1_554  A
C815        F822   1.357       .  S
C816        C817   1.403       .  A
C816        H821   1.084       .  S
C817        C818   1.406       .  A
C818        F819   1.357       .  S
C823        C824   1.400       .  A
C823        C828   1.398   1_554  A
C823        H830   1.083   1_554  S
C824        C825   1.403       .  A
C825        C826   1.394       .  A
C825        F832   1.355       .  S
C826        C827   1.402   1_554  A
C826        H831   1.084       .  S
C827        C828   1.409       .  A
C828        F829   1.358       .  S
C833        C834   1.401       .  A
C833        C838   1.405   1_455  A
C833        H840   1.083       .  S
C834        C835   1.401       .  A
C835        C836   1.388   1_455  A
C835        F842   1.351       .  S
C836        C837   1.398       .  A
C836        H841   1.084       .  S
C837        C838   1.413       .  A
C838        F839   1.357       .  S
C843        C844   1.405   1_655  A
C843        C848   1.403       .  A
C843        H850   1.083       .  S
C844        C845   1.399   1_455  A
C845        C846   1.395       .  A
C845        F852   1.356   1_655  S
C846        C847   1.406       .  A
C846        H851   1.083       .  S
C847        C848   1.405       .  A
C848        F849   1.357       .  S
C853        C854   1.402       .  A
C853        C858   1.397   1_556  A
C853        H860   1.084       .  S
C854        C855   1.403       .  A
C855        C856   1.396       .  A
C855        F862   1.356       .  S
C856        C857   1.400   1_556  A
C856        H861   1.084       .  S
C857        C858   1.403       .  A
C858        F859   1.358       .  S
C863        C864   1.407       .  A
C863        C868   1.396       .  A
C863        H870   1.081       .  S
C864        C865   1.406       .  A
C865        C866   1.406       .  A
C865        F872   1.357       .  S
C866        C867   1.407       .  A
C866        H871   1.083       .  S
C867        C868   1.399       .  A
C868        F869   1.357       .  S
C873        C874   1.404       .  A
C873        C878   1.401   1_556  A
C873        H880   1.084       .  S
C874        C875   1.404       .  A
C875        C876   1.396       .  A
C875        F882   1.356       .  S
C876        C877   1.399   1_556  A
C876        H881   1.084       .  S
C877        C878   1.405       .  A
C878        F879   1.358       .  S
C883        C884   1.408       .  A
C883        C888   1.405       .  A
C883        H890   1.083       .  S
C884        C885   1.405       .  A
C885        C886   1.396       .  A
C885        F892   1.357       .  S
C886        C887   1.403       .  A
C886        H891   1.084       .  S
C887        C888   1.404       .  A
C888        F889   1.357       .  S
C893        C894   1.406       .  A
C893        C898   1.397       .  A
C893        H900   1.083       .  S
C894        C895   1.405   1_556  A
C895        C896   1.393       .  A
C895        F902   1.358   1_455  S
C896        C897   1.400       .  A
C896        H901   1.083       .  S
C897        C898   1.401   1_554  A
C898        F899   1.358       .  S
C903        C904   1.401       .  A
C903        C908   1.397   1_565  A
C903        H910   1.083       .  S
C904        C905   1.404       .  A
C905        C906   1.404   1_565  A
C905        F912   1.357       .  S
C906        C907   1.407       .  A
C906        H911   1.082       .  S
C907        C908   1.404       .  A
C908        F909   1.352       .  S
C913        C914   1.408       .  A
C913        C918   1.400       .  A
C913        H920   1.083       .  S
C914        C915   1.404   1_655  A
C915        C916   1.400       .  A
C915        F922   1.357       .  S
C916        C917   1.409   1_455  A
C916        H921   1.083       .  S
C917        C918   1.404       .  A
C918        F919   1.357       .  S
C923        C924   1.408       .  A
C923        C928   1.398       .  A
C923        H930   1.083       .  S
C924        C925   1.404       .  A
C925        C926   1.391       .  A
C925        F932   1.357       .  S
C926        C927   1.407       .  A
C926        H931   1.083       .  S
C927        C928   1.406       .  A
C928        F929   1.358       .  S
C933        C934   1.404       .  A
C933        C938   1.396       .  A
C933        H940   1.084       .  S
C934        C935   1.406       .  A
C935        C936   1.400       .  A
C935        F942   1.358       .  S
C936        C937   1.403       .  A
C936        H941   1.084       .  S
C937        C938   1.403       .  A
C938        F939   1.358       .  S
C943        C944   1.408   1_545  A
C943        C948   1.394       .  A
C943        H950   1.083       .  S
C944        C945   1.405       .  A
C945        C946   1.398       .  A
C945        F952   1.358       .  S
C946        C947   1.407   1_565  A
C946        H951   1.084       .  S
C947        C948   1.398       .  A
C948        F949   1.357       .  S
C953        C954   1.405       .  A
C953        C958   1.405       .  A
C953        H960   1.084       .  S
C954        C955   1.404       .  A
C955        C956   1.389       .  A
C955        F962   1.358       .  S
C956        C957   1.398       .  A
C956        H961   1.084       .  S
C957        C958   1.406       .  A
C958        F959   1.357       .  S
C963        C964   1.410       .  A
C963        C968   1.405       .  A
C963        H970   1.083       .  S
C964        C965   1.406       .  A
C965        C966   1.394       .  A
C965        F972   1.355       .  S
C966        C967   1.401       .  A
C966        H971   1.083       .  S
C967        C968   1.403       .  A
C968        F969   1.357       .  S
C973        C974   1.408   1_565  A
C973        C978   1.392       .  A
C973        H980   1.083       .  S
C974        C975   1.405       .  A
C975        C976   1.398       .  A
C975        F982   1.358       .  S
C976        C977   1.410   1_545  A
C976        H981   1.083       .  S
C977        C978   1.404       .  A
C978        F979   1.357       .  S
C983        C984   1.399       .  A
C983        C988   1.393       .  A
C983        H990   1.083       .  S
C984        C985   1.403       .  A
C985        C986   1.403       .  A
C985        F992   1.357       .  S
C986        C987   1.405       .  A
C986        H991   1.084       .  S
C987        C988   1.405       .  A
C988        F989   1.358       .  S
C993        C994   1.406       .  A
C993        C998   1.395   1_455  A
C993       H1000   1.083       .  S
C994        C995   1.405       .  A
C995        C996   1.404   1_455  A
C995       F1002   1.357       .  S
C996        C997   1.406       .  A
C996       H1001   1.083       .  S
C997        C998   1.399       .  A
C998        F999   1.355       .  S
C1003      C1004   1.408       .  A
C1003      C1008   1.396       .  A
C1003      H1010   1.084       .  S
C1004      C1005   1.402       .  A
C1005      C1006   1.398       .  A
C1005      F1012   1.357       .  S
C1006      C1007   1.410       .  A
C1006      H1011   1.083       .  S
C1007      C1008   1.402       .  A
C1008      F1009   1.357       .  S
C1013      C1014   1.401       .  A
C1013      C1018   1.392       .  A
C1013      H1020   1.083       .  S
C1014      C1015   1.405       .  A
C1015      C1016   1.398       .  A
C1015      F1022   1.357       .  S
C1016      C1017   1.402       .  A
C1016      H1021   1.083       .  S
C1017      C1018   1.404       .  A
C1018      F1019   1.358       .  S
C1023      C1024   1.402       .  A
C1023      C1028   1.403       .  A
C1023      H1030   1.083       .  S
C1024      C1025   1.402       .  A
C1025      C1026   1.396       .  A
C1025      F1032   1.356       .  S
C1026      C1027   1.402       .  A
C1026      H1031   1.083       .  S
C1027      C1028   1.409       .  A
C1028      F1029   1.356       .  S
C1033      C1034   1.404       .  A
C1033      C1038   1.394   1_565  A
C1033      H1040   1.083       .  S
C1034      C1035   1.412   1_565  A
C1035      C1036   1.410       .  A
C1035      F1042   1.357   1_545  S
C1036      C1037   1.405       .  A
C1036      H1041   1.083       .  S
C1037      C1038   1.404       .  A
C1038      F1039   1.357       .  S
C1043      C1044   1.410   1_455  A
C1043      C1048   1.401       .  A
C1043      H1050   1.083       .  S
C1044      C1045   1.404       .  A
C1045      C1046   1.398       .  A
C1045      F1052   1.357       .  S
C1046      C1047   1.410       .  A
C1046      H1051   1.083       .  S
C1047      C1048   1.406   1_655  A
C1048      F1049   1.357       .  S
C1053      C1054   1.401       .  A
C1053      C1058   1.396       .  A
C1053      H1060   1.083       .  S
C1054      C1055   1.404       .  A
C1055      C1056   1.396       .  A
C1055      F1062   1.357       .  S
C1056      C1057   1.402       .  A
C1056      H1061   1.084       .  S
C1057      C1058   1.405       .  A
C1058      F1059   1.358   1_545  S
C1063      C1064   1.402       .  A
C1063      C1068   1.402       .  A
C1063      H1070   1.084   1_455  S
C1064      C1065   1.402       .  A
C1065      C1066   1.397       .  A
C1065      F1072   1.357       .  S
C1066      C1067   1.403       .  A
C1066      H1071   1.084       .  S
C1067      C1068   1.406       .  A
C1068      F1069   1.356       .  S
C1073      C1074   1.397       .  A
C1073      C1078   1.396   1_545  A
C1073      H1080   1.084       .  S
C1074      C1075   1.406       .  A
C1075      C1076   1.404   1_545  A
C1075      F1082   1.357       .  S
C1076      C1077   1.404       .  A
C1076      H1081   1.083       .  S
C1077      C1078   1.410       .  A
C1078      F1079   1.355       .  S
C1083      C1084   1.408       .  A
C1083      C1088   1.393       .  A
C1083      H1090   1.084   1_455  S
C1084      C1085   1.407       .  A
C1085      C1086   1.405       .  A
C1085      F1092   1.357       .  S
C1086      C1087   1.406       .  A
C1086      H1091   1.083       .  S
C1087      C1088   1.400       .  A
C1088      F1089   1.357       .  S
C1093      C1094   1.402       .  A
C1093      C1098   1.390       .  A
C1093      H1100   1.084       .  S
C1094      C1095   1.406       .  A
C1095      C1096   1.407       .  A
C1095      F1102   1.357       .  S
C1096      C1097   1.405       .  A
C1096      H1101   1.083       .  S
C1097      C1098   1.403       .  A
C1098      F1099   1.358       .  S
C1103      C1104   1.403       .  A
C1103      C1108   1.405       .  A
C1103      H1110   1.083       .  S
C1104      C1105   1.404       .  A
C1105      C1106   1.394       .  A
C1105      F1112   1.358       .  S
C1106      C1107   1.399       .  A
C1106      H1111   1.084       .  S
C1107      C1108   1.408       .  A
C1108      F1109   1.357       .  S
C1113      C1114   1.399       .  A
C1113      C1118   1.396       .  A
C1113      H1120   1.083       .  S
C1114      C1115   1.401       .  A
C1115      C1116   1.390       .  A
C1115      F1122   1.354       .  S
C1116      C1117   1.400       .  A
C1116      H1121   1.084       .  S
C1117      C1118   1.408       .  A
C1118      F1119   1.358       .  S
C1123      C1124   1.405       .  A
C1123      C1128   1.403       .  A
C1123      H1130   1.083       .  S
C1124      C1125   1.400       .  A
C1125      C1126   1.396       .  A
C1125      F1132   1.355   1_554  S
C1126      C1127   1.406       .  A
C1126      H1131   1.084       .  S
C1127      C1128   1.405       .  A
C1128      F1129   1.358       .  S
C1133      C1134   1.402       .  A
C1133      C1138   1.396       .  A
C1133      H1140   1.084       .  S
C1134      C1135   1.409       .  A
C1135      C1136   1.411       .  A
C1135      F1142   1.357   1_455  S
C1136      C1137   1.406       .  A
C1136      H1141   1.083       .  S
C1137      C1138   1.406       .  A
C1138      F1139   1.358       .  S
C1143      C1144   1.403       .  A
C1143      C1148   1.397       .  A
C1143      H1150   1.083       .  S
C1144      C1145   1.405       .  A
C1145      C1146   1.407       .  A
C1145      F1152   1.357       .  S
C1146      C1147   1.409       .  A
C1146      H1151   1.083       .  S
C1147      C1148   1.405       .  A
C1148      F1149   1.357       .  S
C1153      C1154   1.403       .  A
C1153      C1158   1.398       .  A
C1153      H1160   1.084       .  S
C1154      C1155   1.404       .  A
C1155      C1156   1.396       .  A
C1155      F1162   1.358       .  S
C1156      C1157   1.400       .  A
C1156      H1161   1.084       .  S
C1157      C1158   1.402       .  A
C1158      F1159   1.358       .  S
C1163      C1164   1.410       .  A
C1163      C1168   1.406       .  A
C1163      H1170   1.083       .  S
C1164      C1165   1.405       .  A
C1165      C1166   1.394       .  A
C1165      F1172   1.356       .  S
C1166      C1167   1.401       .  A
C1166      H1171   1.083       .  S
C1167      C1168   1.404       .  A
C1168      F1169   1.357       .  S
C1173      C1174   1.402       .  A
C1173      C1178   1.396       .  A
C1173      H1180   1.083       .  S
C1174      C1175   1.403       .  A
C1175      C1176   1.397       .  A
C1175      F1182   1.357       .  S
C1176      C1177   1.405       .  A
C1176      H1181   1.083       .  S
C1177      C1178   1.405       .  A
C1178      F1179   1.358       .  S
C1183      C1184   1.410       .  A
C1183      C1188   1.408       .  A
C1183      H1190   1.083       .  S
C1184      C1185   1.407       .  A
C1185      C1186   1.396       .  A
C1185      F1192   1.358       .  S
C1186      C1187   1.401       .  A
C1186      H1191   1.081       .  S
C1187      C1188   1.405       .  A
C1188      F1189   1.357       .  S
C1193      C1194   1.408       .  A
C1193      C1198   1.413       .  A
C1193      H1200   1.083       .  S
C1194      C1195   1.405       .  A
C1195      C1196   1.394       .  A
C1195      F1202   1.358       .  S
C1196      C1197   1.403       .  A
C1196      H1201   1.084       .  S
C1197      C1198   1.409       .  A
C1198      F1199   1.357       .  S
C1203      C1204   1.403       .  A
C1203      C1208   1.405       .  A
C1203      H1210   1.083       .  S
C1204      C1205   1.410   1_554  A
C1205      C1206   1.396       .  A
C1205      F1212   1.356       .  S
C1206      C1207   1.397   1_556  A
C1206      H1211   1.083       .  S
C1207      C1208   1.407       .  A
C1208      F1209   1.357       .  S
C1213      C1214   1.401       .  A
C1213      C1218   1.398       .  A
C1213      H1220   1.084       .  S
C1214      C1215   1.404       .  A
C1215      C1216   1.395       .  A
C1215      F1222   1.354       .  S
C1216      C1217   1.401       .  A
C1216      H1221   1.084       .  S
C1217      C1218   1.408       .  A
C1218      F1219   1.358       .  S
C1223      C1224   1.404       .  A
C1223      C1228   1.403       .  A
C1223      H1230   1.083       .  S
C1224      C1225   1.401       .  A
C1225      C1226   1.392       .  A
C1225      F1232   1.357       .  S
C1226      C1227   1.402       .  A
C1226      H1231   1.084       .  S
C1227      C1228   1.405       .  A
C1228      F1229   1.358       .  S
C1233      C1234   1.405       .  A
C1233      C1238   1.406       .  A
C1233      H1240   1.083       .  S
C1234      C1235   1.412       .  A
C1235      C1236   1.397       .  A
C1235      F1242   1.358   1_554  S
C1236      C1237   1.398       .  A
C1236      H1241   1.084   1_554  S
C1237      C1238   1.407       .  A
C1238      F1239   1.357       .  S
C1243      C1244   1.411       .  A
C1243      C1248   1.395       .  A
C1243      H1250   1.083       .  S
C1244      C1245   1.407       .  A
C1245      C1246   1.398       .  A
C1245      F1252   1.358       .  S
C1246      C1247   1.404       .  A
C1246      H1251   1.084       .  S
C1247      C1248   1.396       .  A
C1248      F1249   1.357       .  S
C1253      C1254   1.404       .  A
C1253      C1258   1.401       .  A
C1253      H1260   1.084       .  S
C1254      C1255   1.406       .  A
C1255      C1256   1.400       .  A
C1255      F1262   1.358       .  S
C1256      C1257   1.403       .  A
C1256      H1261   1.084       .  S
C1257      C1258   1.404       .  A
C1258      F1259   1.357       .  S
C1263      C1264   1.411       .  A
C1263      C1268   1.402       .  A
C1263      H1270   1.083       .  S
C1264      C1265   1.408       .  A
C1265      C1266   1.403       .  A
C1265      F1272   1.357       .  S
C1266      C1267   1.410       .  A
C1266      H1271   1.083       .  S
C1267      C1268   1.408       .  A
C1268      F1269   1.358       .  S
C1273      C1274   1.401       .  A
C1273      C1278   1.396       .  A
C1273      H1280   1.084       .  S
C1274      C1275   1.405       .  A
C1275      C1276   1.405       .  A
C1275      F1282   1.357       .  S
C1276      C1277   1.404       .  A
C1276      H1281   1.083       .  S
C1277      C1278   1.406       .  A
C1278      F1279   1.358       .  S
C1283      C1284   1.399       .  A
C1283      C1288   1.396       .  A
C1283      H1290   1.083       .  S
C1284      C1285   1.413       .  A
C1285      C1286   1.396       .  A
C1285      F1292   1.358       .  S
C1286      C1287   1.398       .  A
C1286      H1291   1.083       .  S
C1287      C1288   1.411       .  A
C1288      F1289   1.357       .  S
C1293      C1294   1.407       .  A
C1293      C1298   1.402       .  A
C1293      H1300   1.083       .  S
C1294      C1295   1.404       .  A
C1295      C1296   1.396       .  A
C1295      F1302   1.355       .  S
C1296      C1297   1.401       .  A
C1296      H1301   1.083       .  S
C1297      C1298   1.403       .  A
C1298      F1299   1.357       .  S
C1303      C1304   1.406       .  A
C1303      C1308   1.404       .  A
C1303      H1310   1.083       .  S
C1304      C1305   1.404       .  A
C1305      C1306   1.402       .  A
C1305      F1312   1.357       .  S
C1306      C1307   1.405       .  A
C1306      H1311   1.083       .  S
C1307      C1308   1.407       .  A
C1308      F1309   1.358       .  S
C1313      C1314   1.400       .  A
C1313      C1318   1.394       .  A
C1313      H1320   1.083       .  S
C1314      C1315   1.414       .  A
C1315      C1316   1.400       .  A
C1315      F1322   1.358       .  S
C1316      C1317   1.403       .  A
C1316      H1321   1.083       .  S
C1317      C1318   1.414       .  A
C1318      F1319   1.358       .  S
C1323      C1324   1.399       .  A
C1323      C1328   1.395       .  A
C1323      H1330   1.084       .  S
C1324      C1325   1.402       .  A
C1325      C1326   1.393       .  A
C1325      F1332   1.355       .  S
C1326      C1327   1.401       .  A
C1326      H1331   1.084       .  S
C1327      C1328   1.408       .  A
C1328      F1329   1.358       .  S
C1333      C1334   1.408       .  A
C1333      C1338   1.409       .  A
C1333      H1340   1.082       .  S
C1334      C1335   1.400       .  A
C1335      C1336   1.398       .  A
C1335      F1342   1.357       .  S
C1336      C1337   1.410       .  A
C1336      H1341   1.084       .  S
C1337      C1338   1.407       .  A
C1338      F1339   1.357       .  S
C1343      C1344   1.403       .  A
C1343      C1348   1.403       .  A
C1343      H1350   1.083       .  S
C1344      C1345   1.401       .  A
C1345      C1346   1.397       .  A
C1345      F1352   1.358       .  S
C1346      C1347   1.404       .  A
C1346      H1351   1.083       .  S
C1347      C1348   1.405       .  A
C1348      F1349   1.357       .  S
C1353      C1354   1.400       .  A
C1353      C1358   1.396       .  A
C1353      H1360   1.083       .  S
C1354      C1355   1.413       .  A
C1355      C1356   1.396       .  A
C1355      F1362   1.358       .  S
C1356      C1357   1.400       .  A
C1356      H1361   1.083       .  S
C1357      C1358   1.411       .  A
C1358      F1359   1.358       .  S
C1363      C1364   1.402       .  A
C1363      C1368   1.397       .  A
C1363      H1370   1.081       .  S
C1364      C1365   1.404       .  A
C1365      C1366   1.394       .  A
C1365      F1372   1.358       .  S
C1366      C1367   1.402       .  A
C1366      H1371   1.084       .  S
C1367      C1368   1.404       .  A
C1368      F1369   1.357       .  S
C1373      C1374   1.403       .  A
C1373      C1378   1.399       .  A
C1373      H1380   1.082       .  S
C1374      C1375   1.399       .  A
C1375      C1376   1.397       .  A
C1375      F1382   1.355       .  S
C1376      C1377   1.406       .  A
C1376      H1381   1.083       .  S
C1377      C1378   1.403       .  A
C1378      F1379   1.357       .  S
C1383      C1384   1.396       .  A
C1383      C1388   1.393       .  A
C1383      H1390   1.084       .  S
C1384      C1385   1.409       .  A
C1385      C1386   1.407       .  A
C1385      F1392   1.357       .  S
C1386      C1387   1.404       .  A
C1386      H1391   1.083       .  S
C1387      C1388   1.411       .  A
C1388      F1389   1.355       .  S
C1393      C1394   1.401       .  A
C1393      C1398   1.398       .  A
C1393      H1400   1.083       .  S
C1394      C1395   1.411       .  A
C1395      C1396   1.393       .  A
C1395      F1402   1.358       .  S
C1396      C1397   1.398       .  A
C1396      H1401   1.083       .  S
C1397      C1398   1.411       .  A
C1398      F1399   1.358       .  S
C1403      C1404   1.402       .  A
C1403      C1408   1.395       .  A
C1403      H1410   1.083       .  S
C1404      C1405   1.411       .  A
C1405      C1406   1.407       .  A
C1405      F1412   1.356       .  S
C1406      C1407   1.403       .  A
C1406      H1411   1.083       .  S
C1407      C1408   1.404       .  A
C1408      F1409   1.355       .  S
C1413      C1414   1.402       .  A
C1413      C1418   1.394       .  A
C1413      H1420   1.084       .  S
C1414      C1415   1.409       .  A
C1415      C1416   1.397       .  A
C1415      F1422   1.358       .  S
C1416      C1417   1.401       .  A
C1416      H1421   1.084       .  S
C1417      C1418   1.403       .  A
C1418      F1419   1.355       .  S
C1423      C1424   1.404       .  A
C1423      C1428   1.401       .  A
C1423      H1430   1.084       .  S
C1424      C1425   1.404       .  A
C1425      C1426   1.392       .  A
C1425      F1432   1.356       .  S
C1426      C1427   1.397       .  A
C1426      H1431   1.083       .  S
C1427      C1428   1.403       .  A
C1428      F1429   1.358       .  S
C1433      C1434   1.409       .  A
C1433      C1438   1.403       .  A
C1433      H1440   1.083       .  S
C1434      C1435   1.405       .  A
C1435      C1436   1.396       .  A
C1435      F1442   1.357       .  S
C1436      C1437   1.404       .  A
C1436      H1441   1.083       .  S
C1437      C1438   1.402       .  A
C1438      F1439   1.357       .  S
C1443      C1444   1.405       .  A
C1443      C1448   1.400       .  A
C1443      H1450   1.083       .  S
C1444      C1445   1.406       .  A
C1445      C1446   1.403       .  A
C1445      F1452   1.358       .  S
C1446      C1447   1.405       .  A
C1446      H1451   1.083       .  S
C1447      C1448   1.404       .  A
C1448      F1449   1.358       .  S
C1453      C1454   1.404       .  A
C1453      C1458   1.403       .  A
C1453      H1460   1.084       .  S
C1454      C1455   1.407       .  A
C1455      C1456   1.402       .  A
C1455      F1462   1.357       .  S
C1456      C1457   1.403       .  A
C1456      H1461   1.084       .  S
C1457      C1458   1.406       .  A
C1458      F1459   1.358       .  S
C1463      C1464   1.402       .  A
C1463      C1468   1.390       .  A
C1463      H1470   1.084       .  S
C1464      C1465   1.409       .  A
C1465      C1466   1.399       .  A
C1465      F1472   1.357       .  S
C1466      C1467   1.401       .  A
C1466      H1471   1.083       .  S
C1467      C1468   1.402       .  A
C1468      F1469   1.355       .  S
C1473      C1474   1.402       .  A
C1473      C1478   1.386       .  A
C1473      H1480   1.084       .  S
C1474      C1475   1.410       .  A
C1475      C1476   1.418       .  A
C1475      F1482   1.356       .  S
C1476      C1477   1.412   1_655  A
C1476      H1481   1.083   1_655  S
C1477      C1478   1.408   1_455  A
C1478      F1479   1.359       .  S
C1483      C1484   1.410       .  A
C1483      C1488   1.408       .  A
C1483      H1490   1.083       .  S
C1484      C1485   1.406       .  A
C1485      C1486   1.396       .  A
C1485      F1492   1.356       .  S
C1486      C1487   1.403       .  A
C1486      H1491   1.084       .  S
C1487      C1488   1.405       .  A
C1488      F1489   1.357       .  S
C1493      C1494   1.405       .  A
C1493      C1498   1.406       .  A
C1493      H1500   1.083       .  S
C1494      C1495   1.401       .  A
C1495      C1496   1.393       .  A
C1495      F1502   1.358       .  S
C1496      C1497   1.404       .  A
C1496      H1501   1.084       .  S
C1497      C1498   1.406       .  A
C1498      F1499   1.357       .  S
C1503      C1504   1.406       .  A
C1503      C1508   1.404       .  A
C1503      H1510   1.084       .  S
C1504      C1505   1.409       .  A
C1505      C1506   1.396       .  A
C1505      F1512   1.358       .  S
C1506      C1507   1.399       .  A
C1506      H1511   1.084       .  S
C1507      C1508   1.405       .  A
C1508      F1509   1.357       .  S
C1513      C1514   1.407       .  A
C1513      C1518   1.406       .  A
C1513      H1520   1.083       .  S
C1514      C1515   1.399       .  A
C1515      C1516   1.395       .  A
C1515      F1522   1.358       .  S
C1516      C1517   1.409       .  A
C1516      H1521   1.084       .  S
C1517      C1518   1.406       .  A
C1518      F1519   1.357       .  S
C1523      C1524   1.403       .  A
C1523      C1528   1.395       .  A
C1523      H1530   1.084       .  S
C1524      C1525   1.409       .  A
C1525      C1526   1.397       .  A
C1525      F1532   1.358       .  S
C1526      C1527   1.400       .  A
C1526      H1531   1.084       .  S
C1527      C1528   1.403       .  A
C1528      F1529   1.356       .  S
C1533      C1534   1.410       .  A
C1533      C1538   1.413   1_545  A
C1533      H1540   1.083       .  S
C1534      C1535   1.404       .  A
C1535      C1536   1.389   1_545  A
C1535      F1542   1.358       .  S
C1536      C1537   1.402       .  A
C1536      H1541   1.084       .  S
C1537      C1538   1.408       .  A
C1538      F1539   1.357       .  S
C1543      C1544   1.407       .  A
C1543      C1548   1.398       .  A
C1543      H1550   1.083       .  S
C1544      C1545   1.405       .  A
C1545      C1546   1.403       .  A
C1545      F1552   1.357       .  S
C1546      C1547   1.406       .  A
C1546      H1551   1.083       .  S
C1547      C1548   1.401       .  A
C1548      F1549   1.356       .  S
C1553      C1554   1.399       .  A
C1553      C1558   1.397       .  A
C1553      H1560   1.084       .  S
C1554      C1555   1.405       .  A
C1555      C1556   1.405       .  A
C1555      F1562   1.358       .  S
C1556      C1557   1.405       .  A
C1556      H1561   1.084       .  S
C1557      C1558   1.406       .  A
C1558      F1559   1.355       .  S
C1563      C1564   1.404       .  A
C1563      C1568   1.406       .  A
C1563      H1570   1.083       .  S
C1564      C1565   1.411       .  A
C1565      C1566   1.399       .  A
C1565      F1572   1.356       .  S
C1566      C1567   1.398       .  A
C1566      H1571   1.084       .  S
C1567      C1568   1.408       .  A
C1568      F1569   1.357       .  S
C1573      C1574   1.409       .  A
C1573      C1578   1.415       .  A
C1573      H1580   1.083       .  S
C1574      C1575   1.406       .  A
C1575      C1576   1.397       .  A
C1575      F1582   1.358       .  S
C1576      C1577   1.405       .  A
C1576      H1581   1.084       .  S
C1577      C1578   1.408       .  A
C1578      F1579   1.356       .  S
C1583      C1584   1.400       .  A
C1583      C1588   1.395       .  A
C1583      H1590   1.084       .  S
C1584      C1585   1.404       .  A
C1585      C1586   1.401       .  A
C1585      F1592   1.357       .  S
C1586      C1587   1.403       .  A
C1586      H1591   1.084       .  S
C1587      C1588   1.404       .  A
C1588      F1589   1.357       .  S
C1593      C1594   1.401       .  A
C1593      C1598   1.396       .  A
C1593      H1600   1.082       .  S
C1594      C1595   1.402       .  A
C1595      C1596   1.394       .  A
C1595      F1602   1.358       .  S
C1596      C1597   1.403       .  A
C1596      H1601   1.084       .  S
C1597      C1598   1.404       .  A
C1598      F1599   1.358       .  S
C1603      C1604   1.409       .  A
C1603      C1608   1.403       .  A
C1603      H1610   1.083       .  S
C1604      C1605   1.404       .  A
C1605      C1606   1.394       .  A
C1605      F1612   1.353       .  S
C1606      C1607   1.400       .  A
C1606      H1611   1.082       .  S
C1607      C1608   1.402       .  A
C1608      F1609   1.357       .  S
C1613      C1614   1.401       .  A
C1613      C1618   1.393       .  A
C1613      H1620   1.083       .  S
C1614      C1615   1.410       .  A
C1615      C1616   1.403       .  A
C1615      F1622   1.356       .  S
C1616      C1617   1.401       .  A
C1616      H1621   1.083       .  S
C1617      C1618   1.400       .  A
C1618      F1619   1.354       .  S
C1623      C1624   1.404       .  A
C1623      C1628   1.400       .  A
C1623      H1630   1.083       .  S
C1624      C1625   1.404       .  A
C1625      C1626   1.399       .  A
C1625      F1632   1.358       .  S
C1626      C1627   1.404       .  A
C1626      H1631   1.083       .  S
C1627      C1628   1.406       .  A
C1628      F1629   1.358       .  S
C1633      C1634   1.408       .  A
C1633      C1638   1.399       .  A
C1633      H1640   1.084       .  S
C1634      C1635   1.400       .  A
C1635      C1636   1.398       .  A
C1635      F1642   1.357       .  S
C1636      C1637   1.410       .  A
C1636      H1641   1.083       .  S
C1637      C1638   1.405       .  A
C1638      F1639   1.358       .  S
C1643      C1644   1.405       .  A
C1643      C1648   1.405       .  A
C1643      H1650   1.083       .  S
C1644      C1645   1.408       .  A
C1645      C1646   1.401   1_655  A
C1645      F1652   1.358       .  S
C1646      C1647   1.403       .  A
C1646      H1651   1.084       .  S
C1647      C1648   1.406   1_455  A
C1648      F1649   1.357       .  S
C1653      C1654   1.403       .  A
C1653      C1658   1.398       .  A
C1653      H1660   1.083       .  S
C1654      C1655   1.413       .  A
C1655      C1656   1.398       .  A
C1655      F1662   1.358       .  S
C1656      C1657   1.403       .  A
C1656      H1661   1.083       .  S
C1657      C1658   1.412       .  A
C1658      F1659   1.357       .  S
C1663      C1664   1.401       .  A
C1663      C1668   1.395       .  A
C1663      H1670   1.084       .  S
C1664      C1665   1.406       .  A
C1665      C1666   1.404       .  A
C1665      F1672   1.357       .  S
C1666      C1667   1.403       .  A
C1666      H1671   1.083       .  S
C1667      C1668   1.405       .  A
C1668      F1669   1.359       .  S
C1673      C1674   1.409       .  A
C1673      C1678   1.395       .  A
C1673      H1680   1.083       .  S
C1674      C1675   1.409       .  A
C1675      C1676   1.395       .  A
C1675      F1682   1.358       .  S
C1676      C1677   1.401       .  A
C1676      H1681   1.084       .  S
C1677      C1678   1.397       .  A
C1678      F1679   1.357       .  S
C1683      C1684   1.402       .  A
C1683      C1688   1.405       .  A
C1683      H1690   1.083       .  S
C1684      C1685   1.405       .  A
C1685      C1686   1.392       .  A
C1685      F1692   1.357       .  S
C1686      C1687   1.402       .  A
C1686      H1691   1.083       .  S
C1687      C1688   1.411       .  A
C1688      F1689   1.357       .  S
C1693      C1694   1.403       .  A
C1693      C1698   1.399       .  A
C1693      H1700   1.081       .  S
C1694      C1695   1.402       .  A
C1695      C1696   1.395       .  A
C1695      F1702   1.357       .  S
C1696      C1697   1.404       .  A
C1696      H1701   1.083       .  S
C1697      C1698   1.406       .  A
C1698      F1699   1.358       .  S
C1703      C1704   1.405       .  A
C1703      C1708   1.406       .  A
C1703      H1710   1.083       .  S
C1704      C1705   1.407       .  A
C1705      C1706   1.403       .  A
C1705      F1712   1.357       .  S
C1706      C1707   1.404       .  A
C1706      H1711   1.084       .  S
C1707      C1708   1.408       .  A
C1708      F1709   1.357       .  S
C1713      C1714   1.408       .  A
C1713      C1718   1.412       .  A
C1713      H1720   1.083       .  S
C1714      C1715   1.404       .  A
C1715      C1716   1.391       .  A
C1715      F1722   1.358       .  S
C1716      C1717   1.402       .  A
C1716      H1721   1.084       .  S
C1717      C1718   1.408       .  A
C1718      F1719   1.357       .  S
C1723      C1724   1.410       .  A
C1723      C1728   1.396       .  A
C1723      H1730   1.083       .  S
C1724      C1725   1.404       .  A
C1725      C1726   1.396       .  A
C1725      F1732   1.357       .  S
C1726      C1727   1.409       .  A
C1726      H1731   1.083       .  S
C1727      C1728   1.406       .  A
C1728      F1729   1.358       .  S
C1733      C1734   1.401       .  A
C1733      C1738   1.395       .  A
C1733      H1740   1.084       .  S
C1734      C1735   1.409       .  A
C1735      C1736   1.394       .  A
C1735      F1742   1.358       .  S
C1736      C1737   1.398       .  A
C1736      H1741   1.084       .  S
C1737      C1738   1.404       .  A
C1738      F1739   1.356       .  S
C1743      C1744   1.399       .  A
C1743      C1748   1.392       .  A
C1743      H1750   1.084       .  S
C1744      C1745   1.403       .  A
C1745      C1746   1.400       .  A
C1745      F1752   1.357       .  S
C1746      C1747   1.402       .  A
C1746      H1751   1.084       .  S
C1747      C1748   1.403       .  A
C1748      F1749   1.358       .  S
C1753      C1754   1.403       .  A
C1753      C1758   1.404       .  A
C1753      H1760   1.083       .  S
C1754      C1755   1.409       .  A
C1755      C1756   1.393       .  A
C1755      F1762   1.355       .  S
C1756      C1757   1.395       .  A
C1756      H1761   1.083       .  S
C1757      C1758   1.408       .  A
C1758      F1759   1.357       .  S
C1763      C1764   1.402       .  A
C1763      C1768   1.397       .  A
C1763      H1770   1.083       .  S
C1764      C1765   1.412       .  A
C1765      C1766   1.397       .  A
C1765      F1772   1.358       .  S
C1766      C1767   1.403       .  A
C1766      H1771   1.083       .  S
C1767      C1768   1.413       .  A
C1768      F1769   1.358       .  S
C1773      C1774   1.401       .  A
C1773      C1778   1.399       .  A
C1773      H1780   1.084       .  S
C1774      C1775   1.401       .  A
C1775      C1776   1.396       .  A
C1775      F1782   1.358       .  S
C1776      C1777   1.403       .  A
C1776      H1781   1.083       .  S
C1777      C1778   1.405       .  A
C1778      F1779   1.358       .  S
C1783      C1784   1.405       .  A
C1783      C1788   1.405       .  A
C1783      H1790   1.083       .  S
C1784      C1785   1.409       .  A
C1785      C1786   1.396       .  A
C1785      F1792   1.357       .  S
C1786      C1787   1.397       .  A
C1786      H1791   1.080       .  S
C1787      C1788   1.406       .  A
C1788      F1789   1.357       .  S
C1793      C1794   1.407       .  A
C1793      C1798   1.410       .  A
C1793      H1800   1.083       .  S
C1794      C1795   1.410       .  A
C1795      C1796   1.391       .  A
C1795      F1802   1.354       .  S
C1796      C1797   1.395       .  A
C1796      H1801   1.080       .  S
C1797      C1798   1.408       .  A
C1798      F1799   1.357       .  S
C1803      C1804   1.404       .  A
C1803      C1808   1.407       .  A
C1803      H1810   1.083       .  S
C1804      C1805   1.404       .  A
C1805      C1806   1.396       .  A
C1805      F1812   1.357       .  S
C1806      C1807   1.400       .  A
C1806      H1811   1.084       .  S
C1807      C1808   1.408       .  A
C1808      F1809   1.358       .  S
C1813      C1814   1.399       .  A
C1813      C1818   1.398       .  A
C1813      H1820   1.083       .  S
C1814      C1815   1.412       .  A
C1815      C1816   1.398       .  A
C1815      F1822   1.357       .  S
C1816      C1817   1.400       .  A
C1816      H1821   1.083       .  S
C1817      C1818   1.413       .  A
C1818      F1819   1.358       .  S
C1823      C1824   1.403       .  A
C1823      C1828   1.400       .  A
C1823      H1830   1.083       .  S
C1824      C1825   1.405       .  A
C1825      C1826   1.407       .  A
C1825      F1832   1.357       .  S
C1826      C1827   1.409       .  A
C1826      H1831   1.083       .  S
C1827      C1828   1.407       .  A
C1828      F1829   1.356       .  S
C1833      C1834   1.401       .  A
C1833      C1838   1.393       .  A
C1833      H1840   1.084       .  S
C1834      C1835   1.408       .  A
C1835      C1836   1.396       .  A
C1835      F1842   1.357       .  S
C1836      C1837   1.400       .  A
C1836      H1841   1.084       .  S
C1837      C1838   1.404       .  A
C1838      F1839   1.354       .  S
C1843      C1844   1.403       .  A
C1843      C1848   1.397       .  A
C1843      H1850   1.084       .  S
C1844      C1845   1.405       .  A
C1845      C1846   1.404       .  A
C1845      F1852   1.358       .  S
C1846      C1847   1.404       .  A
C1846      H1851   1.083       .  S
C1847      C1848   1.402       .  A
C1848      F1849   1.357       .  S
C1853      C1854   1.401       .  A
C1853      C1858   1.403       .  A
C1853      H1860   1.083       .  S
C1854      C1855   1.403       .  A
C1855      C1856   1.397       .  A
C1855      F1862   1.356       .  S
C1856      C1857   1.402       .  A
C1856      H1861   1.083       .  S
C1857      C1858   1.410       .  A
C1858      F1859   1.357       .  S
C1863      C1864   1.405       .  A
C1863      C1868   1.403   1_565  A
C1863      H1870   1.084       .  S
C1864      C1865   1.406       .  A
C1865      C1866   1.401   1_565  A
C1865      F1872   1.357       .  S
C1866      C1867   1.403       .  A
C1866      H1871   1.084       .  S
C1867      C1868   1.406       .  A
C1868      F1869   1.357       .  S
