geometry optimzed in LAMMPS
_audit_creation_date              2020-12-01 
_audit_creation_method            'lammps2cif' 
_symmetry_space_group_name_H-M    'P1' 
_symmetry_Int_Tables_number       1 
_symmetry_cell_setting            triclinic 
loop_ 
_symmetry_equiv_pos_as_xyz 
  x,y,z 
_cell_length_a                    45.39972796 
_cell_length_b                    44.801351527313926 
_cell_length_c                    35.39967675483487 
_cell_angle_alpha                 89.13148364178402 
_cell_angle_beta                  90.13251497464994 
_cell_angle_gamma                 89.92518158298978 
loop_ 
_atom_site_label 
_atom_site_type_symbol 
_atom_site_fract_x 
_atom_site_fract_y 
_atom_site_fract_z 
_atom_site_charge 
O1          O  0.89244788  0.18613644  0.18421630    -0.81000
C2          C  0.86685536  0.25532531  0.31127356     0.98400
O3          O  0.89219202  0.24857175  0.29973750    -0.70100
O4          O  0.88963854  0.19134669  0.29537235    -0.73700
Al5        Al  0.90365378  0.22088035  0.26228140     1.49000
C6          C  0.88265872  0.16557212  0.28522576     0.93600
O7          O  0.82139881  0.18712387  0.24086268    -0.79900
O8          O  0.85186786  0.25578860  0.18158712    -0.73500
Al9        Al  0.85767436  0.18832122  0.21400172     1.90100
O10         O  0.81187900  0.23496202  0.23415525    -0.72500
O11         O  0.88259304  0.28145130  0.23475591    -0.72400
O12         O  0.84517726  0.25595620  0.28877703    -0.78000
O13         O  0.92034579  0.25095769  0.23111324    -0.76200
O14         O  0.87005663  0.22121955  0.23704232    -1.12400
O15         O  0.92321787  0.19274029  0.23109405    -0.71600
C16         C  0.91805468  0.18454159  0.19778619     0.99200
C17         C  0.80363689  0.20867709  0.24261094     0.95600
Al18       Al  0.84924056  0.25452994  0.23484712     1.55600
O19         O  0.87321934  0.16074952  0.25212389    -0.76200
C20         C  0.90948672  0.27668531  0.22724094     0.99700
C21         C  0.84544648  0.23515334  0.15909757     0.94600
O22         O  0.84015233  0.20900173  0.17120064    -0.81500
O23         O  0.63910814  0.20734133  0.33988647    -0.81000
C24         C  0.66497523  0.26886363  0.20365291     0.98400
O25         O  0.63936151  0.26171357  0.21480371    -0.70100
O26         O  0.63312091  0.20571556  0.23198549    -0.73700
Al27       Al  0.62508997  0.24083085  0.25870155     1.49000
C28         C  0.64159051  0.18102661  0.24548029     0.93600
O29         O  0.70889717  0.20735779  0.27828980    -0.79900
O30         O  0.67675567  0.27786280  0.33278756    -0.73500
Al31       Al  0.67291791  0.20907255  0.30774952     1.90100
O32         O  0.71800432  0.25487502  0.28606489    -0.72500
O33         O  0.65125223  0.30247443  0.27289379    -0.72400
O34         O  0.68629710  0.27157895  0.22656474    -0.78000
O35         O  0.61171075  0.27627907  0.28293064    -0.76200
O36         O  0.65963420  0.24090216  0.28167546    -1.12400
O37         O  0.60518057  0.21912252  0.29772092    -0.71600
C38         C  0.61245268  0.20854042  0.32972742     0.99200
C39         C  0.72658229  0.22923110  0.27750481     0.95600
Al40       Al  0.68143100  0.27390247  0.27987051     1.55600
O41         O  0.65607615  0.17947885  0.27580163    -0.76200
C42         C  0.62471457  0.30110543  0.28186666     0.99700
C43         C  0.68357455  0.25773255  0.35681045     0.94600
O44         O  0.69136008  0.23200025  0.34657122    -0.81500
O45         O  0.89578187  0.27741355  0.05415005    -0.81000
C46         C  0.84271862  0.27982495  0.40921432     0.98400
O47         O  0.85249382  0.25944003  0.43094039    -0.70100
O48         O  0.88707672  0.23487164  0.48224059    -0.73700
Al49       Al  0.85157061  0.25903566  0.48443287     1.49000
C50         C  0.91296345  0.24238123  0.47285086     0.93600
O51         O  0.91953196  0.32596338  0.47644377    -0.79900
O52         O  0.86693057  0.36052104  0.00105400    -0.73500
Al53       Al  0.90617504  0.30427667  0.01408371     1.90100
O54         O  0.88627452  0.33322576  0.43211633    -0.72500
O55         O  0.81728838  0.32309488  0.49254479    -0.72400
O56         O  0.83575675  0.30509936  0.42187735    -0.78000
O57         O  0.81252150  0.27469126  0.48534911    -0.76200
O58         O  0.86923973  0.29429564  0.48597655    -1.12400
O59         O  0.85164504  0.26094219  0.03948606    -0.71600
C60         C  0.87157389  0.26568774  0.06364266     0.99200
C61         C  0.91235582  0.33552979  0.44409321     0.95600
Al62       Al  0.85287739  0.32640841  0.46361947     1.55600
O63         O  0.92174488  0.26857011  0.47829612    -0.76200
C64         C  0.80157178  0.29978732  0.49304663     0.99700
C65         C  0.87881394  0.35879107  0.03325636     0.94600
O66         O  0.89048254  0.33477091  0.04475620    -0.81500
O67         O  0.63230944  0.30178218  0.45829045    -0.81000
C68         C  0.68193618  0.30019958  0.10549011     0.98400
O69         O  0.67709380  0.27761653  0.08540738    -0.70100
O70         O  0.64756826  0.24630407  0.03570310    -0.73700
Al71       Al  0.67920591  0.27526371  0.03280034     1.49000
C72         C  0.62104403  0.25017941  0.04526284     0.93600
O73         O  0.60096598  0.33264253  0.03306984    -0.79900
O74         O  0.65499363  0.36511714  0.99958164    -0.73500
Al75       Al  0.62202289  0.30352071  0.00433986     1.90100
O76         O  0.63386981  0.35117820  0.07117929    -0.72500
O77         O  0.70617576  0.34101328  0.01828712    -0.72400
O78         O  0.68443148  0.32621020  0.09084003    -0.78000
O79         O  0.71643896  0.29465572  0.03192931    -0.76200
O80         O  0.65666527  0.30760538  0.02711996    -1.12400
O81         O  0.66675089  0.26958934  0.47484522    -0.71600
C82         C  0.65185000  0.28325718  0.44978058     0.99200
C83         C  0.60741798  0.34846824  0.06104973     0.95600
Al84       Al  0.66894489  0.34292064  0.04360264     1.55600
O85         O  0.60892116  0.27516968  0.04047006    -0.76200
C86         C  0.72448445  0.31995978  0.02012928     0.99700
C87         C  0.64272384  0.36807901  0.47993534     0.94600
O88         O  0.62006459  0.35270560  0.48735110    -0.81500
O89         O  0.53765981  0.39459239  0.43833237    -0.81000
C90         C  0.52694741  0.43143135  0.28746456     0.98400
O91         O  0.51098390  0.44124699  0.31391638    -0.70100
O92         O  0.48509350  0.39780242  0.35167218    -0.73700
Al93       Al  0.50893852  0.43009404  0.36697035     1.49000
C94         C  0.48458864  0.37181279  0.36570852     0.93600
O95         O  0.55136178  0.35221077  0.35053761    -0.79900
O96         O  0.59623328  0.42393848  0.38408369    -0.73500
Al97       Al  0.54445648  0.37494088  0.39339503     1.90100
O98         O  0.58687283  0.38055610  0.32840135    -0.72500
O99         O  0.56547196  0.46299396  0.34305064    -0.72400
O100        O  0.55128944  0.41871335  0.29423008    -0.78000
O101        O  0.52867086  0.46484625  0.38270327    -0.76200
O102        O  0.54175916  0.40857743  0.36644638    -1.12400
O103        O  0.50083849  0.42324787  0.41970735    -0.71600
C104        C  0.51693128  0.41211800  0.44556308     0.99200
C105        C  0.57344277  0.35566841  0.32981172     0.95600
Al106      Al  0.57268116  0.42059536  0.33952375     1.55600
O107        O  0.50436198  0.36299939  0.38819770    -0.76200
C108        C  0.54936203  0.47748715  0.36525065     0.99700
C109        C  0.60042389  0.40269435  0.40728035     0.94600
O110        O  0.58565865  0.37887695  0.40501764    -0.81500
O111        O  0.50353849  0.63087522  0.33756209    -0.81000
C112        C  0.52271551  0.59828030  0.48767660     0.98400
O113        O  0.50749491  0.58305647  0.46507833    -0.70100
O114        O  0.46863629  0.62032271  0.43621486    -0.73700
Al115      Al  0.49503702  0.59304772  0.41439041     1.49000
C116        C  0.46066164  0.64485102  0.42170811     0.93600
O117        O  0.52617692  0.67975212  0.41846092    -0.79900
O118        O  0.57684403  0.61559070  0.37668977    -0.73500
Al119      Al  0.51504922  0.65318356  0.37929535     1.90100
O120        O  0.56731751  0.65671523  0.43275617    -0.72500
O121        O  0.55862189  0.57206446  0.42418151    -0.72400
O122        O  0.54313548  0.61513341  0.47577354    -0.78000
O123        O  0.51814090  0.56270546  0.39277809    -0.76200
O124        O  0.52281568  0.62059333  0.40650749    -1.12400
O125        O  0.47626101  0.59709756  0.36606731    -0.71600
C126        C  0.48477738  0.61025744  0.33641942     0.99200
C127        C  0.55132403  0.67983047  0.43357691     0.95600
Al128      Al  0.55869282  0.61523888  0.42586197     1.55600
O129        O  0.47562333  0.65751065  0.39614449    -0.76200
C130        C  0.54264753  0.55437122  0.40574207     0.99700
C131        C  0.57293957  0.63620903  0.35225846     0.94600
O132        O  0.55268989  0.65528621  0.35590523    -0.81500
O133        O  0.43603745  0.39724772  0.06054598    -0.81000
C134        C  0.51360048  0.41403430  0.18435883     0.98400
O135        O  0.50424344  0.38928706  0.17273316    -0.70100
O136        O  0.44618238  0.38932646  0.16908586    -0.73700
Al137      Al  0.47643009  0.37944485  0.13421056     1.49000
C138        C  0.42081164  0.39861047  0.15998201     0.93600
O139        O  0.44440898  0.46658138  0.12307457    -0.79900
O140        O  0.50739894  0.43612224  0.05713314    -0.73500
Al141      Al  0.44239794  0.43077326  0.09294875     1.90100
O142        O  0.49138642  0.47431304  0.11286078    -0.72500
O143        O  0.53616945  0.40275246  0.10632990    -0.72400
O144        O  0.51295282  0.43716981  0.16356157    -0.78000
O145        O  0.50630229  0.36496636  0.10112908    -0.76200
O146        O  0.47576204  0.41542901  0.11265378    -1.12400
O147        O  0.44922990  0.36192118  0.10073755    -0.71600
C148        C  0.43699785  0.36997230  0.07028534     0.99200
C149        C  0.46667753  0.48357163  0.12375805     0.95600
Al150      Al  0.50912273  0.43610231  0.11009245     1.55600
O151        O  0.41664866  0.41350370  0.12994722    -0.76200
C152        C  0.53148662  0.37618664  0.09656748     0.99700
C153        C  0.48582001  0.44377324  0.03652591     0.94600
O154        O  0.46118022  0.45025173  0.05068306    -0.81500
O155        O  0.42467415  0.65473213  0.21264108    -0.81000
C156        C  0.49033639  0.63178314  0.07921301     0.98400
O157        O  0.48268524  0.65723780  0.09081046    -0.70100
O158        O  0.42579062  0.65854062  0.10418693    -0.73700
Al159      Al  0.45880296  0.66906403  0.13326520     1.49000
C160        C  0.40170334  0.64761515  0.11546930     0.93600
O161        O  0.42680713  0.58266067  0.15599776    -0.79900
O162        O  0.49759654  0.61237434  0.20569475    -0.73500
Al163      Al  0.42844400  0.61991150  0.18255055     1.90100
O164        O  0.47396307  0.57370185  0.15618661    -0.72500
O165        O  0.51985842  0.64462715  0.15138669    -0.72400
O166        O  0.48986995  0.60927975  0.10091589    -0.78000
O167        O  0.49173691  0.68351083  0.16036302    -0.76200
O168        O  0.45963886  0.63364372  0.15666758    -1.12400
O169        O  0.43504524  0.68894390  0.16993545    -0.71600
C170        C  0.42472495  0.68165530  0.20180378     0.99200
C171        C  0.44791919  0.56473111  0.15179526     0.95600
Al172      Al  0.49239352  0.61177077  0.15381928     1.55600
O173        O  0.39950513  0.63469625  0.14728081    -0.76200
C174        C  0.51680933  0.67154319  0.16084065     0.99700
C175        C  0.47903935  0.60621312  0.23086648     0.94600
O176        O  0.45184680  0.60333317  0.22338514    -0.81500
O177        O  0.37904651  0.69151440  0.45052662    -0.81000
C178        C  0.35574236  0.76309375  0.07144856     0.98400
O179        O  0.37529916  0.74461675  0.06246537    -0.70100
O180        O  0.39173280  0.69608754  0.02938646    -0.73700
Al181      Al  0.39163928  0.73730756  0.01445894     1.49000
C182        C  0.37193115  0.67623846  0.03101253     0.93600
O183        O  0.30353964  0.71656200  0.48749800    -0.79900
O184        O  0.33065006  0.77322525  0.43995408    -0.73500
Al185      Al  0.34309962  0.70745725  0.47136544     1.90100
O186        O  0.30796189  0.76110588  0.51086763    -0.72500
O187        O  0.37523671  0.79661689  0.47144027    -0.72400
O188        O  0.33987934  0.77579111  0.04642464    -0.78000
O189        O  0.41125624  0.77513129  0.50145630    -0.76200
O190        O  0.36077631  0.73965445  0.49104107    -1.12400
O191        O  0.41220443  0.72617674  0.46244613    -0.71600
C192        C  0.40436868  0.70289198  0.44565264     0.99200
C193        C  0.29288521  0.73838032  0.50493891     0.95600
Al194      Al  0.34327357  0.77523024  0.49145881     1.55600
O195        O  0.34847362  0.67845381  0.01191463    -0.76200
C196        C  0.40165837  0.79607285  0.48124581     0.99700
C197        C  0.33278882  0.75318145  0.41525853     0.94600
O198        O  0.33748901  0.72632212  0.42413324    -0.81500
O199        O  0.11887787  0.70122301  0.07968376    -0.81000
C200        C  0.14856373  0.77629221  0.45333383     0.98400
O201        O  0.12371090  0.76614782  0.46329716    -0.70100
O202        O  0.12457447  0.70717766  0.47158765    -0.73700
Al203      Al  0.10931537  0.73701867  0.99989475     1.49000
C204        C  0.12985696  0.68144643  0.48506838     0.93600
O205        O  0.19423236  0.70706829  0.03255442    -0.79900
O206        O  0.15577014  0.77812492  0.07557450    -0.73500
Al207      Al  0.15516744  0.70703062  0.05425037     1.90100
O208        O  0.20093391  0.75483386  0.03761216    -0.72500
O209        O  0.13399286  0.79887749  0.01095643    -0.72400
O210        O  0.17018081  0.77487404  0.47581416    -0.78000
O211        O  0.09442260  0.77303927  0.02163911    -0.76200
O212        O  0.14266872  0.73793613  0.02604609    -1.12400
O213        O  0.08651782  0.71627173  0.03750732    -0.71600
C214        C  0.09261409  0.70356057  0.06861305     0.99200
C215        C  0.21125183  0.72917401  0.03402991     0.95600
Al216      Al  0.16407967  0.77140409  0.02439214     1.55600
O217        O  0.14525848  0.67699707  0.01844105    -0.76200
C218        C  0.10731845  0.79784786  0.01939935     0.99700
C219        C  0.15970697  0.75950951  0.10237176     0.94600
O220        O  0.16583682  0.73222882  0.09625458    -0.81500
O221        O  0.38004899  0.80841894  0.31875179    -0.81000
C222        C  0.34677545  0.80477235  0.16444120     0.98400
O223        O  0.33885847  0.78664374  0.19025134    -0.70100
O224        O  0.37697039  0.75865710  0.23162669    -0.73700
Al225      Al  0.34592130  0.78427225  0.24404494     1.49000
C226        C  0.40262308  0.75663732  0.24448498     0.93600
O227        O  0.42590019  0.82690531  0.23401189    -0.79900
O228        O  0.35813902  0.87381653  0.26135024    -0.73500
Al229      Al  0.40116591  0.81767456  0.27474748     1.90100
O230        O  0.39869486  0.86089607  0.20552102    -0.72500
O231        O  0.31606182  0.84669728  0.22583320    -0.72400
O232        O  0.35718632  0.82990360  0.17232790    -0.78000
O233        O  0.31098564  0.80430590  0.25610687    -0.76200
O234        O  0.36851190  0.81717205  0.24565186    -1.12400
O235        O  0.34858627  0.77545646  0.29743711    -0.71600
C236        C  0.36027890  0.78932212  0.32450112     0.99200
C237        C  0.42319010  0.84769081  0.21015919     0.95600
Al238      Al  0.35849545  0.84988011  0.21874692     1.55600
O239        O  0.41266523  0.77658755  0.26584299    -0.76200
C240        C  0.30013426  0.82837715  0.24398572     0.99700
C241        C  0.37749253  0.87809673  0.28606415     0.94600
O242        O  0.39826879  0.85953359  0.29064930    -0.81500
O243        O  0.13277242  0.78608103  0.21128677    -0.81000
C244        C  0.17678039  0.80277881  0.35634048     0.98400
O245        O  0.18731819  0.78393752  0.33386762    -0.70100
O246        O  0.14266944  0.75233183  0.31309092    -0.73700
Al247      Al  0.17232335  0.77191256  0.28555823     1.49000
C248        C  0.11738375  0.74662740  0.30097219     0.93600
O249        O  0.09467425  0.81631794  0.29769742    -0.79900
O250        O  0.16100596  0.85523936  0.24073308    -0.73500
Al251      Al  0.11528035  0.80085143  0.25529558     1.90100
O252        O  0.12388925  0.85504133  0.30422287    -0.72500
O253        O  0.20512345  0.83234350  0.28342828    -0.72400
O254        O  0.16459318  0.82639816  0.34387914    -0.78000
O255        O  0.20465581  0.78765392  0.25938118    -0.76200
O256        O  0.15023442  0.80414445  0.27767386    -1.12400
O257        O  0.16204265  0.75305986  0.23854650    -0.71600
C258        C  0.15034459  0.76436302  0.20916436     0.99200
C259        C  0.09930749  0.84225664  0.31005005     0.95600
Al260      Al  0.16283337  0.83966949  0.29199963     1.55600
O261        O  0.10630880  0.76137542  0.27386503    -0.76200
C262        C  0.21822135  0.81123625  0.26676205     0.99700
C263        C  0.13776909  0.85470675  0.22078348     0.94600
O264        O  0.11601174  0.83903623  0.23079316    -0.81500
O265        O  0.07616142  0.39300957  0.45901748    -0.81000
C266        C  0.00318413  0.40646543  0.32936239     0.98400
O267        O  0.01356346  0.38200802  0.34190510    -0.70100
O268        O  0.07068030  0.38738316  0.34834913    -0.73700
Al269      Al  0.04160518  0.37380700  0.38197116     1.49000
C270        C  0.09564788  0.39601220  0.35908515     0.93600
O271        O  0.06709722  0.46123546  0.39265876    -0.79900
O272        O  0.00352196  0.42763263  0.45675622    -0.73500
Al273      Al  0.07010265  0.42604330  0.42465554     1.90100
O274        O  0.01940655  0.46646453  0.40085658    -0.72500
O275        O  0.98025605  0.39240510  0.40579771    -0.72400
O276        O  0.00224819  0.42916752  0.34993587    -0.78000
O277        O  0.01267804  0.35658883  0.41371769    -0.76200
O278        O  0.03871862  0.40910612  0.40337279    -1.12400
O279        O  0.07034533  0.35794721  0.41693343    -0.71600
C280        C  0.07984754  0.36639444  0.44866501     0.99200
C281        C  0.04377733  0.47674156  0.39009305     0.95600
Al282      Al  0.00415944  0.42751688  0.40346047     1.55600
O283        O  0.09871826  0.40968676  0.38986522    -0.76200
C284        C  0.98659462  0.36593440  0.41531221     0.99700
C285        C  0.02323620  0.43863339  0.47766001     0.94600
O286        O  0.04846602  0.44487389  0.46469282    -0.81500
O287        O  0.07272304  0.65066769  0.30616506    -0.81000
C288        C  0.00289323  0.62039222  0.43375441     0.98400
O289        O  0.01144058  0.64592309  0.42323852    -0.70100
O290        O  0.06934513  0.64724847  0.41786275    -0.73700
Al291      Al  0.03821170  0.65939186  0.38538532     1.49000
C292        C  0.09508868  0.64312923  0.40549182     0.93600
O293        O  0.07641234  0.57870172  0.36466728    -0.79900
O294        O  0.00715929  0.60533619  0.30525618    -0.73500
Al295      Al  0.07285998  0.61521124  0.33669702     1.90100
O296        O  0.02994726  0.56594160  0.35860035    -0.72500
O297        O  0.97941437  0.63456586  0.35802313    -0.72400
O298        O  0.00577148  0.59815849  0.41252232    -0.78000
O299        O  0.00728975  0.67453707  0.35483818    -0.76200
O300        O  0.03976723  0.62559637  0.36043974    -1.12400
O301        O  0.06427794  0.68085978  0.35316756    -0.71600
C302        C  0.07360225  0.67635309  0.32020004     0.99200
C303        C  0.05648475  0.55912832  0.36603280     0.95600
Al304      Al  0.00816074  0.60255106  0.35863120     1.55600
O305        O  0.09923625  0.63310795  0.37272801    -0.76200
C306        C  0.98264241  0.66211717  0.35074676     0.99700
C307        C  0.02791299  0.59962388  0.28284377     0.94600
O308        O  0.05383487  0.59574853  0.29494953    -0.81500
O309        O  0.97721605  0.38668198  0.08336417    -0.81000
C310        C  0.98142340  0.43166024  0.22988512     0.98400
O311        O  0.99791946  0.44051232  0.20322185    -0.70100
O312        O  0.02702786  0.39967088  0.16658687    -0.73700
Al313      Al  0.99965276  0.42981978  0.15078556     1.49000
C314        C  0.02822338  0.37232681  0.15921076     0.93600
O315        O  0.95796547  0.34927788  0.17645572    -0.79900
O316        O  0.91019077  0.41508970  0.13421737    -0.73500
Al317      Al  0.96777532  0.37034103  0.13127632     1.90100
O318        O  0.92317136  0.37937561  0.19509111    -0.72500
O319        O  0.93828378  0.46005103  0.16731147    -0.72400
O320        O  0.95633321  0.42071459  0.22362608    -0.78000
O321        O  0.97850869  0.46419973  0.13440915    -0.76200
O322        O  0.96765880  0.40613190  0.15315082    -1.12400
O323        O  0.00696367  0.42337284  0.09818837    -0.71600
C324        C  0.99461743  0.40729098  0.07377487     0.99200
C325        C  0.93516054  0.35406425  0.19562581     0.95600
Al326      Al  0.93514674  0.41797051  0.17789088     1.55600
O327        O  0.00736435  0.35991915  0.14236206    -0.76200
C328        C  0.95512354  0.47547168  0.14675795     0.99700
C329        C  0.90791577  0.39147610  0.11525799     0.94600
O330        O  0.92793863  0.37199902  0.11568858    -0.81500
O331        O  0.98887499  0.65055139  0.17595975    -0.81000
C332        C  0.98385216  0.60526040  0.03314101     0.98400
O333        O  0.00304706  0.61514225  0.05575073    -0.70100
O334        O  0.02516837  0.64669697  0.11153215    -0.73700
Al335      Al  0.00223799  0.61073874  0.10915932     1.49000
C336        C  0.01804218  0.67312229  0.10288005     0.93600
O337        O  0.93511220  0.67873566  0.10206322    -0.79900
O338        O  0.90686154  0.62148015  0.12485350    -0.73500
Al339      Al  0.96241299  0.66123140  0.13603435     1.90100
O340        O  0.92709814  0.64549131  0.05833603    -0.72500
O341        O  0.94137214  0.57235887  0.11477428    -0.72400
O342        O  0.95877689  0.59693598  0.04495261    -0.78000
O343        O  0.98906135  0.57072841  0.10586640    -0.76200
O344        O  0.96664549  0.62740870  0.11116622    -1.12400
O345        O  0.00378711  0.60511245  0.16280292    -0.71600
C346        C  0.99950251  0.62566168  0.18632235     0.99200
C347        C  0.92528637  0.67195427  0.07004788     0.95600
Al348      Al  0.93607881  0.61030261  0.08791555     1.55600
O349        O  0.99179128  0.68150657  0.10674924    -0.76200
C350        C  0.96528205  0.55770946  0.11373632     0.99700
C351        C  0.90835320  0.63454231  0.15621591     0.94600
O352        O  0.93227281  0.64557453  0.16745923    -0.81500
O353        O  0.59453616  0.14683706  0.06760807    -0.81000
C354        C  0.51505780  0.12551363  0.18906528     0.98400
O355        O  0.52507739  0.15055851  0.17839868    -0.70100
O356        O  0.58303116  0.14957607  0.17638145    -0.73700
Al357      Al  0.55378032  0.16183795  0.14110304     1.49000
C358        C  0.60857977  0.14096999  0.16760774     0.93600
O359        O  0.58547502  0.07597256  0.12807642    -0.79900
O360        O  0.52343852  0.10939086  0.06075210    -0.73500
Al361      Al  0.58790507  0.11241672  0.09872084     1.90100
O362        O  0.53873125  0.06841930  0.11582863    -0.72500
O363        O  0.49452583  0.14031599  0.11113793    -0.72400
O364        O  0.51625454  0.10316208  0.16769851    -0.78000
O365        O  0.52457541  0.17826903  0.10778838    -0.76200
O366        O  0.55441795  0.12703785  0.11815308    -1.12400
O367        O  0.58202957  0.18047091  0.10913805    -0.71600
C368        C  0.59439004  0.17349092  0.07862483     0.99200
C369        C  0.56309811  0.05924651  0.12853558     0.95600
Al370      Al  0.52106123  0.10675181  0.11401120     1.55600
O371        O  0.61333481  0.12806798  0.13680416    -0.76200
C372        C  0.49931273  0.16735348  0.10288818     0.99700
C373        C  0.54510835  0.10209300  0.04046109     0.94600
O374        O  0.56947702  0.09478429  0.05529689    -0.81500
O375        O  0.58336590  0.87525373  0.18700555    -0.81000
C376        C  0.51489535  0.93806545  0.08037424     0.98400
O377        O  0.51321426  0.90995393  0.08562832    -0.70100
O378        O  0.56620525  0.88852332  0.08409427    -0.73700
Al379      Al  0.53529961  0.88373554  0.11897786     1.49000
C380        C  0.59327004  0.89256079  0.08952325     0.93600
O381        O  0.59118659  0.95444340  0.14634855    -0.79900
O382        O  0.52260308  0.93018552  0.20923733    -0.73500
Al383      Al  0.58431540  0.91451501  0.16618964     1.90100
O384        O  0.55061124  0.97231593  0.16870749    -0.72500
O385        O  0.48638766  0.92065643  0.15218073    -0.72400
O386        O  0.52217123  0.95528959  0.10684056    -0.78000
O387        O  0.50239874  0.87493200  0.15082959    -0.76200
O388        O  0.54776608  0.91307425  0.14780352    -1.12400
O389        O  0.55537226  0.85233221  0.14603205    -0.71600
C390        C  0.57277171  0.85154653  0.17387964     0.99200
C391        C  0.57517773  0.97661159  0.15345992     0.95600
Al392      Al  0.52263324  0.94225642  0.15838114     1.55600
O393        O  0.60308531  0.90066834  0.12119323    -0.76200
C394        C  0.48202541  0.89321625  0.15745160     0.99700
C395        C  0.54522617  0.92708205  0.22998172     0.94600
O396        O  0.57111432  0.92755186  0.21598220    -0.81500
O397        O  0.49456764  0.14706715  0.43837920    -0.81000
C398        C  0.49533722  0.10433208  0.29079027     0.98400
O399        O  0.51033474  0.09287980  0.31744263    -0.70100
O400        O  0.54082322  0.13529851  0.34665490    -0.73700
Al401      Al  0.51591322  0.10650507  0.36854658     1.49000
C402        C  0.54596378  0.16117917  0.35785575     0.93600
O403        O  0.48232434  0.18890282  0.34748965    -0.79900
O404        O  0.42851843  0.12587265  0.38837967    -0.73500
Al405      Al  0.48856310  0.16629384  0.39206241     1.90100
O406        O  0.44376278  0.16349333  0.32870054    -0.72500
O407        O  0.45417210  0.08008131  0.35453852    -0.72400
O408        O  0.47258346  0.11946629  0.29762835    -0.78000
O409        O  0.49403686  0.07475250  0.38919394    -0.76200
O410        O  0.48553195  0.13163287  0.36842416    -1.12400
O411        O  0.52789919  0.11469609  0.42017464    -0.71600
C412        C  0.51392029  0.12787626  0.44609099     0.99200
C413        C  0.45878914  0.18740529  0.32885884     0.95600
Al414      Al  0.45247673  0.12273046  0.34412660     1.55600
O415        O  0.53044165  0.17249203  0.38353937    -0.76200
C416        C  0.47052633  0.06429539  0.37592712     0.99700
C417        C  0.42663387  0.14995825  0.40623064     0.94600
O418        O  0.44757305  0.16859239  0.40570496    -0.81500
O419        O  0.48352659  0.89187769  0.32929297    -0.81000
C420        C  0.49071704  0.93286447  0.47885969     0.98400
O421        O  0.50950925  0.93823414  0.45319776    -0.70100
O422        O  0.52891188  0.89120708  0.42024160    -0.73700
Al423      Al  0.51211809  0.92607456  0.40101956     1.49000
C424        C  0.52603970  0.86474541  0.40999628     0.93600
O425        O  0.45266801  0.85803459  0.41827215    -0.79900
O426        O  0.42562518  0.93445335  0.37642024    -0.73500
Al427      Al  0.46846220  0.87689061  0.37497426     1.90100
O428        O  0.42409817  0.89475872  0.43543056    -0.72500
O429        O  0.46066814  0.97010436  0.41441035    -0.72400
O430        O  0.46449791  0.92623582  0.47045864    -0.78000
O431        O  0.50090863  0.96359018  0.38196815    -0.76200
O432        O  0.47575000  0.91090201  0.39930976    -1.12400
O433        O  0.52203431  0.91672638  0.34950015    -0.71600
C434        C  0.50696910  0.90594832  0.32287432     0.99200
C435        C  0.43092634  0.86749604  0.43647069     0.95600
Al436      Al  0.44628823  0.92979205  0.42215290     1.55600
O437        O  0.50503579  0.85728675  0.38869747    -0.76200
C438        C  0.48144048  0.98050878  0.39460874     0.99700
C439        C  0.41674228  0.91385825  0.35525295     0.94600
O440        O  0.42947984  0.88864998  0.35553963    -0.81500
O441        O  0.88383977  0.83983452  0.08807917    -0.81000
C442        C  0.85535630  0.77785688  0.45111851     0.98400
O443        O  0.88089549  0.78385366  0.46317461    -0.70100
O444        O  0.88867244  0.83929968  0.47771886    -0.73700
Al445      Al  0.89797801  0.80882568  0.00713434     1.49000
C446        C  0.87801992  0.86409075  0.48669463     0.93600
O447        O  0.81446673  0.84170282  0.02572096    -0.79900
O448        O  0.84317466  0.77005060  0.08130953    -0.73500
Al449      Al  0.84998656  0.83895829  0.05536173     1.90100
O450        O  0.80524550  0.79369095  0.02820502    -0.72500
O451        O  0.87464885  0.74632085  0.02728963    -0.72400
O452        O  0.83348851  0.77599540  0.47332454    -0.78000
O453        O  0.91278673  0.77541057  0.03508513    -0.76200
O454        O  0.86338783  0.80738311  0.02992565    -1.12400
O455        O  0.91684638  0.83338544  0.04373009    -0.71600
C456        C  0.91008500  0.84169520  0.07651018     0.99200
C457        C  0.79683231  0.82017589  0.02159099     0.95600
Al458      Al  0.84228763  0.77403240  0.02794563     1.55600
O459        O  0.86696566  0.86875210  0.02238357    -0.76200
C460        C  0.90116411  0.74989734  0.03684381     0.99700
C461        C  0.83537493  0.78955348  0.10469149     0.94600
O462        O  0.83054662  0.81615905  0.09428183    -0.81500
O463        O  0.62385503  0.83764084  0.44621773    -0.81000
C464        C  0.65580373  0.74880315  0.06215138     0.98400
O465        O  0.63045662  0.75750705  0.05216267    -0.70100
O466        O  0.63098891  0.81582730  0.04820171    -0.73700
Al467      Al  0.61748895  0.78642196  0.01509727     1.49000
C468        C  0.63988158  0.84145987  0.03873207     0.93600
O469        O  0.69550362  0.82240874  0.49836253    -0.79900
O470        O  0.65920054  0.76068093  0.43458933    -0.73500
Al471      Al  0.65807045  0.82679496  0.47345611     1.90100
O472        O  0.70168204  0.77562815  0.48520932    -0.72500
O473        O  0.63186894  0.73112474  0.48944706    -0.72400
O474        O  0.67748860  0.75167214  0.04008592    -0.78000
O475        O  0.59330076  0.75935539  0.48271538    -0.76200
O476        O  0.64299336  0.79259324  0.49202283    -1.12400
O477        O  0.58837979  0.81713270  0.47939676    -0.71600
C478        C  0.59693336  0.83385502  0.45275709     0.99200
C479        C  0.71206949  0.80009024  0.49557448     0.95600
Al480      Al  0.66351222  0.75877890  0.48798957     1.55600
O481        O  0.64957940  0.84700761  0.00581809    -0.76200
C482        C  0.60538823  0.73421110  0.48022093     0.99700
C483        C  0.66518092  0.78295635  0.41338957     0.94600
O484        O  0.67130997  0.80831397  0.42709768    -0.81500
O485        O  0.88502886  0.75215316  0.21253013    -0.81000
C486        C  0.83707364  0.74652945  0.35423540     0.98400
O487        O  0.84624691  0.76623129  0.33107220    -0.70100
O488        O  0.87768171  0.78929955  0.27498506    -0.73700
Al489      Al  0.84339739  0.76435465  0.27767912     1.49000
C490        C  0.90389521  0.78346258  0.28414063     0.93600
O491        O  0.91327448  0.69947229  0.28822930    -0.79900
O492        O  0.85876521  0.66821121  0.26574984    -0.73500
Al493      Al  0.89564960  0.72617240  0.25336939     1.90100
O494        O  0.88016443  0.69010611  0.33180368    -0.72500
O495        O  0.80867318  0.70070472  0.27471154    -0.72400
O496        O  0.83085742  0.72042052  0.34346764    -0.78000
O497        O  0.80480307  0.74912871  0.28068423    -0.76200
O498        O  0.86160128  0.72910285  0.27751324    -1.12400
O499        O  0.83910214  0.76476568  0.22405676    -0.71600
C500        C  0.86020585  0.76137102  0.20124156     0.99200
C501        C  0.90635752  0.68875350  0.32003714     0.95600
Al502      Al  0.84575982  0.69755263  0.30165867     1.55600
O503        O  0.91346474  0.75717129  0.28193383    -0.76200
C504        C  0.79318880  0.72422568  0.27461583     0.99700
C505        C  0.87231252  0.67005119  0.23461843     0.94600
O506        O  0.88224347  0.69468767  0.22268886    -0.81500
O507        O  0.61939965  0.74291308  0.30313066    -0.81000
C508        C  0.67567808  0.73144592  0.16451679     0.98400
O509        O  0.68486296  0.74856890  0.19035028    -0.70100
O510        O  0.64644815  0.78466648  0.21977651    -0.73700
Al511      Al  0.67094535  0.75505254  0.24137670     1.49000
C512        C  0.61928586  0.78944296  0.22105478     0.93600
O513        O  0.59069161  0.71823064  0.20839202    -0.79900
O514        O  0.64911550  0.67063379  0.26847348    -0.73500
Al515      Al  0.60763396  0.73042241  0.25471341     1.90100
O516        O  0.61708478  0.67789367  0.20293076    -0.72500
O517        O  0.69686788  0.69134877  0.23127559    -0.72400
O518        O  0.66161285  0.70766843  0.17221754    -0.78000
O519        O  0.70052207  0.73152157  0.26413190    -0.76200
O520        O  0.64463629  0.72555013  0.23889546    -1.12400
O521        O  0.66126093  0.76596640  0.29222785    -0.71600
C522        C  0.64122148  0.75749163  0.31470003     0.99200
C523        C  0.59388023  0.69235561  0.19576873     0.95600
Al524      Al  0.65532462  0.69006367  0.22039787     1.55600
O525        O  0.60224152  0.77050908  0.23591762    -0.76200
C526        C  0.71189102  0.70819228  0.25167796     0.99700
C527        C  0.62457099  0.67151130  0.28550812     0.94600
O528        O  0.60529426  0.69107737  0.27698093    -0.81500
O529        O  0.38543734  0.34342218  0.33604329    -0.81000
C530        C  0.36634467  0.27577055  0.20613298     0.98400
O531        O  0.39157253  0.28247125  0.21897787    -0.70100
O532        O  0.39666366  0.33845471  0.23286173    -0.73700
Al533      Al  0.40377551  0.30425915  0.26247642     1.49000
C534        C  0.38438846  0.36275379  0.24058184     0.93600
O535        O  0.31643729  0.33487591  0.27562346    -0.79900
O536        O  0.35092529  0.26695137  0.33468610    -0.73500
Al537      Al  0.35254578  0.33632512  0.30462606     1.90100
O538        O  0.30975317  0.28734031  0.28575422    -0.72500
O539        O  0.37855222  0.24261820  0.27725624    -0.72400
O540        O  0.34412849  0.27272122  0.22769960    -0.78000
O541        O  0.41693407  0.26949735  0.28991592    -0.76200
O542        O  0.36813683  0.30414878  0.28266058    -1.12400
O543        O  0.42169459  0.32697420  0.30104623    -0.71600
C544        C  0.41249536  0.34120891  0.32914318     0.99200
C545        C  0.29977902  0.31240390  0.27623145     0.95600
Al546      Al  0.34744421  0.27039741  0.28155041     1.55600
O547        O  0.36717072  0.36496312  0.26834456    -0.76200
C548        C  0.40474917  0.24437877  0.28781158     0.99700
C549        C  0.34419029  0.28716188  0.35788232     0.94600
O550        O  0.33663436  0.31317196  0.34662283    -0.81500
O551        O  0.13174033  0.34913443  0.17895033    -0.81000
C552        C  0.16111926  0.27108594  0.30235111     0.98400
O553        O  0.13556386  0.27695125  0.29001770    -0.70100
O554        O  0.12596875  0.33504838  0.28559448    -0.73700
Al555      Al  0.12112471  0.30331603  0.25085872     1.49000
C556        C  0.13277181  0.36177214  0.27773985     0.93600
O557        O  0.20156236  0.34915018  0.23932992    -0.79900
O558        O  0.18206481  0.28154960  0.17517380    -0.73500
Al559      Al  0.16585803  0.34598420  0.21018745     1.90100
O560        O  0.21613318  0.30343489  0.23075413    -0.72500
O561        O  0.15421250  0.24802996  0.22451267    -0.72400
O562        O  0.18360271  0.27601701  0.28214965    -0.78000
O563        O  0.11159612  0.27026788  0.21849748    -0.76200
O564        O  0.15612924  0.30996328  0.22971933    -1.12400
O565        O  0.09927804  0.32861238  0.21700053    -0.71600
C566        C  0.10535659  0.34496956  0.18873507     0.99200
C567        C  0.22150983  0.32962462  0.24091133     0.95600
Al568      Al  0.18189917  0.28000118  0.22818582     1.55600
O569        O  0.14679239  0.36849902  0.24817999    -0.76200
C570        C  0.12736111  0.24709209  0.21572272     0.99700
C571        C  0.18584489  0.30407183  0.15377007     0.94600
O572        O  0.18602680  0.33021463  0.16683611    -0.81500
O573        O  0.39345463  0.23911437  0.46162362    -0.81000
C574        C  0.35150576  0.24607529  0.10744906     0.98400
O575        O  0.35897384  0.26761013  0.08573344    -0.70100
O576        O  0.38623719  0.29612094  0.02873681    -0.73700
Al577      Al  0.35453789  0.26766376  0.03243768     1.49000
C578        C  0.41292667  0.29265990  0.03725868     0.93600
O579        O  0.43015619  0.20971725  0.03986631    -0.79900
O580        O  0.37469487  0.17417401  0.01081880    -0.73500
Al581      Al  0.40981060  0.23534222  0.00566190     1.90100
O582        O  0.39659235  0.19206779  0.07863454    -0.72500
O583        O  0.32365814  0.20328887  0.02388479    -0.72400
O584        O  0.34674069  0.22012400  0.09470298    -0.78000
O585        O  0.31696533  0.25008506  0.03741028    -0.76200
O586        O  0.37547720  0.23402900  0.02945982    -1.12400
O587        O  0.35761087  0.26940513  0.47699774    -0.71600
C588        C  0.37326359  0.25701183  0.45236061     0.99200
C589        C  0.42324315  0.19487389  0.06898774     0.95600
Al590      Al  0.36146317  0.20029411  0.05012932     1.55600
O591        O  0.42443244  0.26722531  0.03527673    -0.76200
C592        C  0.30666870  0.22541282  0.02776470     0.99700
C593        C  0.38682272  0.17006830  0.48882803     0.94600
O594        O  0.40733682  0.18877219  0.49259683    -0.81500
O595        O  0.14948016  0.25221800  0.05189879    -0.81000
C596        C  0.18457379  0.25081197  0.40359613     0.98400
O597        O  0.19839721  0.26457086  0.42904515    -0.70100
O598        O  0.15898273  0.29747222  0.46145509    -0.73700
Al599      Al  0.18743037  0.27089020  0.48127998     1.49000
C600        C  0.13413291  0.30353693  0.47490763     0.93600
O601        O  0.10314340  0.23906791  0.47080467    -0.79900
O602        O  0.16710815  0.18432297  0.00577243    -0.73500
Al603      Al  0.12939747  0.24634301  0.00696431     1.90100
O604        O  0.12647195  0.20022978  0.44854299    -0.72500
O605        O  0.21051378  0.20851127  0.46342372    -0.72400
O606        O  0.16832982  0.22891335  0.41208488    -0.78000
O607        O  0.21858846  0.24674387  0.50013246    -0.76200
O608        O  0.16142427  0.24123287  0.48412657    -1.12400
O609        O  0.18372490  0.28300787  0.03151224    -0.71600
C610        C  0.17003025  0.27008271  0.05830452     0.99200
C611        C  0.10313632  0.21564332  0.45162349     0.95600
Al612      Al  0.16758866  0.20784541  0.45880913     1.55600
O613        O  0.12362751  0.28799093  0.50185764    -0.76200
C614        C  0.22763387  0.22353114  0.48419180     0.99700
C615        C  0.14479666  0.18482079  0.02705015     0.94600
O616        O  0.12577824  0.20544054  0.02380663    -0.81500
O617        O  0.94356040  0.14286480  0.44013165    -0.81000
C618        C  0.02904876  0.12218594  0.32666625     0.98400
O619        O  0.01947058  0.14739008  0.33695740    -0.70100
O620        O  0.96225883  0.14889798  0.33825200    -0.73700
Al621      Al  0.99101077  0.15938333  0.37411451     1.49000
C622        C  0.93914112  0.13345178  0.34059386     0.93600
O623        O  0.95920321  0.07061974  0.39072073    -0.79900
O624        O  0.01967747  0.10564919  0.45400773    -0.73500
Al625      Al  0.95494033  0.10834387  0.41407685     1.90100
O626        O  0.00566214  0.06399757  0.40270772    -0.72500
O627        O  0.04901722  0.13483132  0.40218193    -0.72400
O628        O  0.02679124  0.09926081  0.34798761    -0.78000
O629        O  0.02126830  0.17429928  0.40742217    -0.76200
O630        O  0.98903556  0.12354487  0.39648216    -1.12400
O631        O  0.96279730  0.17882013  0.40599041    -0.71600
C632        C  0.94613184  0.17012910  0.43242084     0.99200
C633        C  0.98117237  0.05378971  0.39317281     0.95600
Al634      Al  0.02220273  0.10255838  0.40145758     1.55600
O635        O  0.93244080  0.11928852  0.37042343    -0.76200
C636        C  0.04622207  0.16188664  0.40994879     0.99700
C637        C  0.99746868  0.10129264  0.47489531     0.94600
O638        O  0.97232715  0.09523709  0.46129194    -0.81500
O639        O  0.93085893  0.88658823  0.30551143    -0.81000
C640        C  0.00022073  0.90854085  0.43542346     0.98400
O641        O  0.99160796  0.88329838  0.42462502    -0.70100
O642        O  0.93514124  0.88337771  0.41430833    -0.73700
Al643      Al  0.96702569  0.87158637  0.38365591     1.49000
C644        C  0.91073552  0.89383054  0.40340158     0.93600
O645        O  0.93628177  0.95762816  0.36363386    -0.79900
O646        O  0.00258017  0.92660357  0.30497507    -0.73500
Al647      Al  0.93572342  0.92115069  0.33587708     1.90100
O648        O  0.98368832  0.96520914  0.35816757    -0.72500
O649        O  0.02818919  0.89378336  0.35774065    -0.72400
O650        O  0.00315785  0.92996409  0.41213531    -0.78000
O651        O  0.99893706  0.85524263  0.35561123    -0.76200
O652        O  0.96801145  0.90654933  0.35927236    -1.12400
O653        O  0.94192442  0.85248672  0.34845011    -0.71600
C654        C  0.93106507  0.85969788  0.31678098     0.99200
C655        C  0.95829428  0.97468852  0.36580552     0.95600
Al656      Al  0.00155737  0.92719108  0.35831258     1.55600
O657        O  0.90791651  0.90622011  0.37153589    -0.76200
C658        C  0.02403244  0.86658374  0.35076569     0.99700
C659        C  0.98227019  0.93494305  0.28265303     0.94600
O660        O  0.95636784  0.93898432  0.29427506    -0.81500
O661        O  0.02955316  0.13525839  0.08244251    -0.81000
C662        C  0.05399042  0.09795694  0.22928204     0.98400
O663        O  0.03953977  0.08249447  0.20618014    -0.70100
O664        O  0.99945535  0.12050610  0.18450955    -0.73700
Al665      Al  0.02438501  0.09510109  0.15762508     1.49000
C666        C  0.98925405  0.14495200  0.17256741     0.93600
O667        O  0.05131128  0.18216707  0.16554732    -0.79900
O668        O  0.10366748  0.12241375  0.11689643    -0.73500
Al669      Al  0.04042332  0.15684660  0.12523949     1.90100
O670        O  0.09442801  0.16153359  0.17625340    -0.72500
O671        O  0.08828413  0.07540545  0.16183802    -0.72400
O672        O  0.07325368  0.11633290  0.21769930    -0.78000
O673        O  0.04706524  0.06707699  0.13142738    -0.76200
O674        O  0.05073365  0.12382605  0.14993910    -1.12400
O675        O  0.00308269  0.10098097  0.11100585    -0.71600
C676        C  0.01190377  0.11371266  0.08113403     0.99200
C677        C  0.07713800  0.18379750  0.17850431     0.95600
Al678      Al  0.08728438  0.11919023  0.16697114     1.55600
O679        O  0.00063403  0.15846065  0.14454752    -0.76200
C680        C  0.07178570  0.05813582  0.14301379     0.99700
C681        C  0.09806616  0.14388596  0.09422680     0.94600
O682        O  0.07734220  0.16196886  0.10052908    -0.81500
O683        O  0.03048613  0.89797409  0.17786651    -0.81000
C684        C  0.02877407  0.93973258  0.02892384     0.98400
O685        O  0.01706751  0.95411690  0.05570831    -0.70100
O686        O  0.98230985  0.91756002  0.09140046    -0.73700
Al687      Al  0.01262338  0.94255273  0.10873513     1.49000
C688        C  0.97527081  0.89167143  0.10201882     0.93600
O689        O  0.03773246  0.85636474  0.08793302    -0.79900
O690        O  0.09573741  0.91670562  0.12521971    -0.73500
Al691      Al  0.03417695  0.87933683  0.13182333     1.90100
O692        O  0.07844367  0.87770040  0.06877979    -0.72500
O693        O  0.07390238  0.96244331  0.08413320    -0.72400
O694        O  0.05015622  0.92211730  0.03503841    -0.78000
O695        O  0.04002813  0.97148712  0.12606439    -0.76200
O696        O  0.03941312  0.91375640  0.10702675    -1.12400
O697        O  0.00280181  0.93627179  0.16157113    -0.71600
C698        C  0.01491275  0.91983377  0.18659283     0.99200
C699        C  0.06091826  0.85568616  0.06879736     0.95600
Al700      Al  0.07213258  0.91929754  0.08038722     1.55600
O701        O  0.99192707  0.87671490  0.12386648    -0.76200
C702        C  0.06183196  0.98003518  0.10694144     0.99700
C703        C  0.09515243  0.89469353  0.14807507     0.94600
O704        O  0.07534587  0.87481067  0.14558840    -0.81500
C705        C  0.07897931  0.02618434  0.13801121    -0.15600
C706        C  0.06975514  0.01197411  0.10693203    -0.30800
H707        H  0.08704735  0.01347862  0.16228230     0.13400
H708        H  0.06246941  0.02506007  0.08254634     0.14000
C709        C  0.01644727  0.94246422  0.99032080    -0.15600
C710        C  0.00546955  0.91218165  0.47623020    -0.30800
H711        H  0.00588554  0.96312536  0.98119760     0.13400
H712        H  0.99749961  0.89437709  0.49478931     0.14000
C713        C  0.98804101  0.93837918  0.24197322    -0.15600
C714        C  0.01131074  0.92474739  0.22705491    -0.30800
H715        H  0.97127120  0.94830802  0.22378533     0.13400
H716        H  0.02683578  0.91314859  0.24556945     0.14000
C717        C  0.02017141  0.10466390  0.01471872    -0.15600
C718        C  0.00168879  0.10359338  0.04421360    -0.30800
H719        H  0.04306570  0.11092315  0.01915507     0.13400
H720        H  0.97899339  0.09639927  0.04095285     0.14000
C721        C  0.04338769  0.12089705  0.28943670    -0.15600
C722        C  0.04623520  0.09582766  0.26962553    -0.30800
H723        H  0.04916091  0.14213433  0.27610861     0.13400
H724        H  0.03789518  0.07482733  0.28100694     0.14000
C725        C  0.95527286  0.00630641  0.37673792    -0.15600
C726        C  0.97983455  0.02195666  0.38430145    -0.30800
H727        H  0.93364184  0.01662266  0.37821762     0.13400
H728        H  0.00109931  0.01074510  0.38390517     0.14000
C729        C  0.14010569  0.16177477  0.05666770    -0.15600
C730        C  0.11378322  0.14835463  0.05835456    -0.30800
H731        H  0.15444078  0.16183789  0.08127184     0.13400
H732        H  0.09953389  0.15042781  0.03368549     0.14000
C733        C  0.07504004  0.20497776  0.43516974    -0.15600
C734        C  0.07337038  0.17730918  0.42152368    -0.30800
H735        H  0.05532716  0.21858555  0.43745407     0.13400
H736        H  0.09331495  0.16388051  0.42051674     0.14000
C737        C  0.25936045  0.21639179  0.48659398    -0.15600
C738        C  0.27429880  0.22442788  0.02329979    -0.30800
H739        H  0.27239382  0.21956034  0.46115044     0.13400
H740        H  0.26259459  0.24043706  0.04053151     0.14000
C741        C  0.11567137  0.21809244  0.20229325    -0.15600
C742        C  0.08719739  0.21266484  0.19447705    -0.30800
H743        H  0.13165508  0.20031127  0.19840354     0.13400
H744        H  0.07105887  0.23034525  0.19791207     0.14000
C745        C  0.16344884  0.25752794  0.34046175    -0.15600
C746        C  0.18648337  0.26126070  0.36380350    -0.30800
H747        H  0.14387163  0.24626070  0.35110649     0.13400
H748        H  0.20515441  0.27476506  0.35486944     0.14000
C749        C  0.18776839  0.29988863  0.11255633    -0.15600
C750        C  0.17707135  0.27464307  0.09816523    -0.30800
H751        H  0.19364888  0.31854156  0.09413656     0.13400
H752        H  0.16929894  0.25713384  0.11727568     0.14000
C753        C  0.34667380  0.28101983  0.39870965    -0.15600
C754        C  0.36795257  0.26273779  0.41187616    -0.30800
H755        H  0.33316599  0.29368482  0.41807006     0.13400
H756        H  0.38226575  0.25142950  0.39204830     0.14000
C757        C  0.34873234  0.25081832  0.14847487    -0.15600
C758        C  0.36393440  0.27260971  0.16501879    -0.30800
H759        H  0.33671764  0.23463993  0.16564335     0.13400
H760        H  0.37811113  0.28688711  0.14786967     0.14000
C761        C  0.26853803  0.31278494  0.26539148    -0.15600
C762        C  0.25174594  0.33619059  0.25462842    -0.30800
H763        H  0.25862792  0.29068309  0.26582849     0.13400
H764        H  0.26005263  0.35887641  0.25534598     0.14000
C765        C  0.76106936  0.72485026  0.26846710    -0.15600
C766        C  0.74352970  0.70196141  0.25922932    -0.30800
H767        H  0.75121610  0.74688230  0.27103662     0.13400
H768        H  0.75262089  0.67989435  0.25458624     0.14000
C769        C  0.92280488  0.80722720  0.29941550    -0.15600
C770        C  0.91675142  0.83644817  0.29399949    -0.30800
H771        H  0.94105196  0.80050198  0.31759290     0.13400
H772        H  0.89959291  0.84330347  0.27422768     0.14000
C773        C  0.65858584  0.73402090  0.09935282    -0.15600
C774        C  0.67959218  0.74069073  0.12458070    -0.30800
H775        H  0.63984141  0.72067241  0.10846645     0.13400
H776        H  0.69668063  0.75668741  0.11719782     0.14000
C777        C  0.66442128  0.77958343  0.37189508    -0.15600
C778        C  0.64328150  0.76307695  0.35570513    -0.30800
H779        H  0.68004299  0.79195921  0.35455165     0.13400
H780        H  0.62677958  0.75245799  0.37363856     0.14000
C781        C  0.83411419  0.78201105  0.14509979    -0.15600
C782        C  0.85692858  0.76741395  0.16062446    -0.30800
H783        H  0.81700481  0.79153646  0.16261879     0.13400
H784        H  0.87498979  0.76039732  0.14262348     0.14000
C785        C  0.85229524  0.77370513  0.41016514    -0.15600
C786        C  0.83443655  0.75347302  0.39473816    -0.30800
H787        H  0.86809149  0.78541540  0.39227022     0.13400
H788        H  0.82055610  0.73955280  0.41269772     0.14000
C789        C  0.74372345  0.80055045  0.50505112    -0.15600
C790        C  0.76570985  0.82494538  0.00956578    -0.30800
H791        H  0.76092954  0.77926779  0.99945515     0.13400
H792        H  0.75595220  0.84706981  0.00939998     0.14000
C793        C  0.88646638  0.89007265  0.46395904    -0.15600
C794        C  0.88465019  0.88821449  0.42648016    -0.30800
H795        H  0.90297128  0.90451148  0.47639484     0.13400
H796        H  0.86790900  0.87407170  0.41400387     0.14000
C797        C  0.93332433  0.85527908  0.09994293    -0.15600
C798        C  0.94829690  0.87869211  0.08561492    -0.30800
H799        H  0.93864676  0.84585179  0.12755032     0.13400
H800        H  0.94086650  0.88854934  0.05897056     0.14000
C801        C  0.54770225  0.84269746  0.42407137    -0.15600
C802        C  0.57552765  0.85147816  0.43067907    -0.30800
H803        H  0.54064963  0.82012002  0.43094828     0.13400
H804        H  0.58265132  0.87345285  0.42101518     0.14000
C805        C  0.44751596  0.21488997  0.31058412    -0.09200
C806        C  0.41964153  0.21637977  0.29848122    -0.30800
H807        H  0.46097181  0.23490108  0.31114755     0.13400
H808        H  0.40620043  0.19632626  0.29868221     0.14000
C809        C  0.39149977  0.14776531  0.45927347    -0.15600
C810        C  0.39923512  0.15882767  0.42520591    -0.30800
H811        H  0.39931166  0.12585771  0.46825914     0.13400
H812        H  0.39246252  0.18162867  0.41846041     0.14000
C813        C  0.48522829  0.01277623  0.38786119    -0.15600
C814        C  0.46321356  0.03268615  0.38413722    -0.30800
H815        H  0.50777872  0.02029074  0.38373750     0.13400
H816        H  0.44040271  0.02545652  0.38455528     0.14000
C817        C  0.58134176  0.82232312  0.19077105    -0.15600
C818        C  0.60827730  0.81830485  0.20587028    -0.30800
H819        H  0.56641333  0.80349946  0.18831691     0.13400
H820        H  0.62388244  0.83670241  0.20490869     0.14000
C821        C  0.61330653  0.88464676  0.05879121    -0.15600
C822        C  0.63526602  0.86535973  0.06581617    -0.30800
H823        H  0.60454463  0.88639775  0.03019923     0.13400
H824        H  0.64139259  0.86056381  0.09499396     0.14000
C825        C  0.50802684  0.95000257  0.04251325    -0.15600
C826        C  0.48248029  0.94217518  0.02673886    -0.30800
H827        H  0.52554229  0.96003943  0.02580353     0.13400
H828        H  0.52295077  0.93992551  0.52479961     0.14000
C829        C  0.54082596  0.92246787  0.27099294    -0.15600
C830        C  0.51548578  0.91015578  0.28311241    -0.30800
H831        H  0.55813489  0.92833145  0.29077936     0.13400
H832        H  0.49934423  0.90292685  0.26238729     0.14000
C833        C  0.44668555  0.17924762  0.09077033    -0.15600
C834        C  0.47546351  0.18599282  0.08639418    -0.30800
H835        H  0.44028452  0.16092342  0.10945701     0.13400
H836        H  0.48179852  0.20531822  0.06936340     0.14000
C837        C  0.51944102  0.12185816  0.48628262    -0.15600
C838        C  0.54115648  0.10459345  0.50015729    -0.30800
H839        H  0.50509267  0.13354695  0.50572398     0.13400
H840        H  0.55628591  0.09007913  0.98135197     0.14000
C841        C  0.50097626  0.12375944  0.22644447    -0.15600
C842        C  0.50543012  0.10128221  0.25134107    -0.30800
H843        H  0.48951186  0.14371059  0.23564096     0.13400
H844        H  0.51958606  0.08266518  0.24400059     0.14000
C845        C  0.56282869  0.02922701  0.14586312    -0.15600
C846        C  0.58346199  0.00773822  0.14257973    -0.30800
H847        H  0.54167139  0.02345019  0.15823334     0.13400
H848        H  0.60420361  0.01229369  0.12846286     0.14000
C849        C  0.91089690  0.69570033  0.04718585    -0.15600
C850        C  0.91830036  0.72452550  0.05225609    -0.30800
H851        H  0.89349260  0.68978145  0.02759134     0.13400
H852        H  0.93699958  0.72988613  0.07013925     0.14000
C853        C  0.88125431  0.64170491  0.17721077    -0.15600
C854        C  0.88154980  0.64278626  0.21502047    -0.30800
H855        H  0.86503026  0.65490250  0.16172353     0.13400
H856        H  0.89724317  0.62888965  0.23045336     0.14000
C857        C  0.94779072  0.50733993  0.13796186    -0.15600
C858        C  0.96757898  0.52502729  0.12047404    -0.30800
H859        H  0.92708584  0.51659726  0.14768756     0.13400
H860        H  0.98852211  0.51526187  0.11234975     0.14000
C861        C  0.05305047  0.35361634  0.17270798    -0.15600
C862        C  0.08143464  0.36155846  0.16896697    -0.30800
H863        H  0.04761065  0.33246702  0.18638617     0.13400
H864        H  0.08704539  0.38166498  0.15303671     0.14000
C865        C  0.92951973  0.67346767  0.34228977    -0.15600
C866        C  0.95799814  0.67993163  0.33571225    -0.30800
H867        H  0.92344566  0.65597543  0.36238678     0.13400
H868        H  0.96365148  0.69884667  0.31752278     0.14000
C869        C  0.00570362  0.62154853  0.22686074    -0.15600
C870        C  0.02220509  0.59955120  0.24188386    -0.30800
H871        H  0.99668143  0.63837790  0.24546722     0.13400
H872        H  0.03361057  0.58384553  0.22396178     0.14000
C873        C  0.98813341  0.61829382  0.47048526    -0.15600
C874        C  0.98952403  0.59463858  0.49402961    -0.30800
H875        H  0.97797955  0.63880730  0.48024045     0.13400
H876        H  0.97839855  0.58853999  0.97461614     0.14000
C877        C  0.01934155  0.43225314  0.01910653    -0.15600
C878        C  0.00002411  0.41220529  0.03306564    -0.30800
H879        H  0.03318024  0.45527647  0.53497831     0.13400
H880        H  0.98798187  0.39803326  0.01372971     0.14000
C881        C  0.99121307  0.40779234  0.29074853    -0.15600
C882        C  0.99225843  0.43261684  0.26901220    -0.30800
H883        H  0.98277847  0.38720955  0.27895964     0.13400
H884        H  0.00344038  0.45247347  0.27885042     0.14000
C885        C  0.06373451  0.52780037  0.37646431    -0.15600
C886        C  0.04262313  0.50705321  0.37401057    -0.30800
H887        H  0.08529505  0.52218113  0.38791275     0.13400
H888        H  0.02108366  0.51355974  0.36312305     0.14000
C889        C  0.11695220  0.32750088  0.45601209    -0.15600
C890        C  0.09671377  0.34490392  0.47248717    -0.30800
H891        H  0.12153804  0.33109044  0.42613516     0.13400
H892        H  0.09334600  0.34395455  0.50283528     0.14000
C893        C  0.12131390  0.38573964  0.33778779    -0.15600
C894        C  0.12013755  0.38585585  0.30011100    -0.30800
H895        H  0.13733380  0.37184656  0.35264206     0.13400
H896        H  0.10448210  0.40040628  0.28558972     0.14000
C897        C  0.13512460  0.87066783  0.18422391    -0.15600
C898        C  0.11557133  0.89298744  0.18054315    -0.30800
H899        H  0.14084940  0.85797515  0.15936830     0.13400
H900        H  0.10848908  0.90450209  0.20575449     0.14000
C901        C  0.07569798  0.85896699  0.32968344    -0.15600
C902        C  0.04843915  0.84797586  0.33589330    -0.30800
H903        H  0.08058309  0.88180259  0.33754495     0.13400
H904        H  0.04343661  0.82515036  0.32812358     0.14000
C905        C  0.10095442  0.72256678  0.31918053    -0.15600
C906        C  0.08733989  0.70124890  0.29954093    -0.30800
H907        H  0.10255279  0.72074711  0.34979351     0.13400
H908        H  0.08832103  0.70110100  0.26887444     0.14000
C909        C  0.37383713  0.90621433  0.30722427    -0.15600
C910        C  0.38973263  0.92081291  0.33336371    -0.30800
H911        H  0.35414584  0.91838710  0.29840001     0.13400
H912        H  0.38028734  0.94226341  0.34090774     0.14000
C913        C  0.44979686  0.85641083  0.18879042    -0.15600
C914        C  0.45316369  0.88329222  0.17228131    -0.30800
H915        H  0.46840797  0.84114221  0.18996339     0.13400
H916        H  0.43527642  0.89939101  0.17303317     0.14000
C917        C  0.26816068  0.83422608  0.25093477    -0.15600
C918        C  0.25029276  0.81090673  0.25885201    -0.30800
H919        H  0.25935666  0.85670947  0.24850858     0.13400
H920        H  0.25972645  0.78860040  0.25818808     0.14000
C921        C  0.09303347  0.82623742  0.02850767    -0.15600
C922        C  0.06862929  0.82787301  0.04938404    -0.30800
H923        H  0.10562045  0.84640771  0.02274074     0.13400
H924        H  0.05607683  0.80782687  0.05588638     0.14000
C925        C  0.12002851  0.65517863  0.42670797    -0.15600
C926        C  0.11964822  0.65531914  0.46438421    -0.30800
H927        H  0.13483927  0.67005429  0.41138411     0.13400
H928        H  0.10570217  0.63961700  0.47973761     0.14000
C929        C  0.04034725  0.69363138  0.08639609    -0.15600
C930        C  0.06936320  0.68873716  0.09136104    -0.30800
H931        H  0.03287649  0.71178110  0.06802904     0.13400
H932        H  0.07648396  0.67150330  0.11134730     0.14000
C933        C  0.17695551  0.79534163  0.39726061    -0.15600
C934        C  0.15123230  0.79013576  0.41506767    -0.30800
H935        H  0.19755094  0.78880487  0.41067326     0.13400
H936        H  0.13084245  0.79417859  0.39963129     0.14000
C937        C  0.15603559  0.77019857  0.14107700    -0.15600
C938        C  0.15739985  0.75232939  0.17182371    -0.30800
H939        H  0.15035898  0.79363627  0.14420453     0.13400
H940        H  0.16412551  0.72913972  0.16961262     0.14000
C941        C  0.42188403  0.81929987  0.46769575    -0.15600
C942        C  0.41204313  0.84633434  0.45700969    -0.30800
H943        H  0.44507842  0.81371059  0.46506144     0.13400
H944        H  0.38923569  0.85254841  0.46186534     0.14000
C945        C  0.35163889  0.78353753  0.36397443    -0.15600
C946        C  0.33346309  0.76152400  0.37498016    -0.30800
H947        H  0.36258228  0.79678231  0.38534908     0.13400
H948        H  0.32419018  0.74646581  0.35437207     0.14000
C949        C  0.35213458  0.76971687  0.11200314    -0.15600
C950        C  0.34443190  0.79683556  0.12415295    -0.30800
H951        H  0.35932705  0.75286656  0.13247931     0.13400
H952        H  0.34030186  0.81466500  0.10363854     0.14000
C953        C  0.25835836  0.71227289  0.00603492    -0.15600
C954        C  0.24350895  0.72678959  0.03285940    -0.30800
H955        H  0.25583219  0.76013610  0.53157047     0.13400
H956        H  0.25525706  0.74266813  0.05024730     0.14000
C957        C  0.56975297  0.67755785  0.17524006    -0.15600
C958        C  0.54241244  0.68909479  0.17354352    -0.30800
H959        H  0.57382543  0.65524135  0.16484733     0.13400
H960        H  0.53823498  0.71124433  0.18440750     0.14000
C961        C  0.40970269  0.70445167  0.22478255    -0.15600
C962        C  0.42137688  0.73143650  0.23206219    -0.30800
H963        H  0.38724701  0.69963799  0.23351524     0.13400
H964        H  0.44439096  0.73579256  0.22572228     0.14000
C965        C  0.37805213  0.64994524  0.05449882    -0.15600
C966        C  0.37550183  0.65250314  0.09189627    -0.30800
H967        H  0.39560516  0.63582870  0.04391730     0.13400
H968        H  0.35870615  0.66710032  0.10335261     0.14000
C969        C  0.43042785  0.31783000  0.05164278    -0.15600
C970        C  0.42254364  0.34676438  0.04741061    -0.30800
H971        H  0.44983239  0.31210765  0.06829375     0.13400
H972        H  0.40425259  0.35306340  0.02912400     0.14000
C973        C  0.39524144  0.38740366  0.18111319    -0.15600
C974        C  0.39359358  0.38917796  0.21866921    -0.30800
H975        H  0.38192897  0.37089468  0.16673394     0.13400
H976        H  0.40663620  0.40570442  0.23335155     0.14000
C977        C  0.46626868  0.51459916  0.13762965    -0.15600
C978        C  0.44287272  0.53290912  0.14136443    -0.30800
H979        H  0.48807185  0.52357056  0.14309234     0.13400
H980        H  0.42076317  0.52502261  0.13548034     0.14000
C981        C  0.56287113  0.70739983  0.45096183    -0.15600
C982        C  0.58997865  0.70758143  0.46629659    -0.30800
H983        H  0.54982599  0.72773372  0.44959830     0.13400
H984        H  0.60271945  0.68701661  0.46704543     0.14000
C985        C  0.59020132  0.63851414  0.31728365    -0.15600
C986        C  0.61737579  0.65023032  0.31642113    -0.30800
H987        H  0.57695829  0.64042941  0.29168639     0.13400
H988        H  0.63103454  0.65010150  0.34164576     0.14000
C989        C  0.42657130  0.68698678  0.42436142    -0.15600
C990        C  0.43367585  0.65907511  0.43505881    -0.30800
H991        H  0.44071305  0.69974402  0.40541544     0.13400
H992        H  0.42073523  0.64747249  0.45652079     0.14000
C993        C  0.50241100  0.60255204  0.02295891    -0.15600
C994        C  0.50145882  0.62886306  0.04060138    -0.30800
H995        H  0.49259259  0.58269276  0.03564005     0.13400
H996        H  0.50905567  0.64901521  0.02610345     0.14000
C997        C  0.47262062  0.60207777  0.29973836    -0.15600
C998        C  0.49003575  0.60450752  0.26951889    -0.30800
H999        H  0.44947119  0.59638411  0.29718911     0.13400
H1000       H  0.51335494  0.60918110  0.27342140     0.14000
C1001       C  0.46200363  0.35062244  0.35363794    -0.15600
C1002       C  0.43352657  0.35812847  0.35202871    -0.30800
H1003       H  0.46930298  0.32915502  0.34321867     0.13400
H1004       H  0.42607545  0.37878741  0.36461048     0.14000
C1005       C  0.52610561  0.41491700  0.22235493    -0.15600
C1006       C  0.51681337  0.43436520  0.24811648    -0.30800
H1007       H  0.54064358  0.39666037  0.23075105     0.13400
H1008       H  0.49992779  0.45073442  0.24088192     0.14000
C1009       C  0.51198834  0.41857769  0.48519523    -0.15600
C1010       C  0.48864330  0.44200408  0.99540729    -0.30800
H1011       H  0.52735559  0.40821414  0.50503324     0.13400
H1012       H  0.47632165  0.45692354  0.97678747     0.14000
C1013       C  0.55290802  0.50991271  0.36879999    -0.15600
C1014       C  0.55077925  0.52284564  0.40253382    -0.30800
H1015       H  0.55402362  0.52350484  0.34315660     0.13400
H1016       H  0.55086641  0.50925328  0.42822551     0.14000
C1017       C  0.60406385  0.22584359  0.06276780    -0.15600
C1018       C  0.60984095  0.19688683  0.05677843    -0.30800
H1019       H  0.58604888  0.23208774  0.08124374     0.13400
H1020       H  0.62649581  0.19043686  0.03645532     0.14000
C1021       C  0.64221587  0.38640853  0.44518352    -0.15600
C1022       C  0.62019645  0.40590197  0.43984547    -0.30800
H1023       H  0.65198991  0.37606483  0.42062264     0.13400
H1024       H  0.60995749  0.41552153  0.46458590     0.14000
C1025       C  0.58405033  0.36508349  0.08142929    -0.15600
C1026       C  0.55518376  0.35819485  0.07886773    -0.30800
H1027       H  0.59082099  0.38362465  0.09888266     0.13400
H1028       H  0.54858784  0.33866796  0.06310053     0.14000
C1029       C  0.76976368  0.30034867  0.50124147    -0.15600
C1030       C  0.75564156  0.32452983  0.00852864    -0.30800
H1031       H  0.75862211  0.27897971  0.49872818     0.13400
H1032       H  0.76375844  0.34701315  0.00339489     0.14000
C1033       C  0.93310326  0.22098339  0.45435262    -0.15600
C1034       C  0.92795362  0.19147564  0.45395805    -0.30800
H1035       H  0.95243201  0.22988541  0.44008039     0.13400
H1036       H  0.90939375  0.18248478  0.46976857     0.14000
C1037       C  0.88260422  0.38589717  0.05594374    -0.15600
C1038       C  0.88135260  0.38417891  0.09368745    -0.30800
H1039       H  0.89543496  0.40365612  0.04277152     0.13400
H1040       H  0.86863247  0.36594265  0.10598862     0.14000
C1041       C  0.93489416  0.35092366  0.42168818    -0.15600
C1042       C  0.96350278  0.34616555  0.42953007    -0.30800
H1043       H  0.92815866  0.36766669  0.40085225     0.13400
H1044       H  0.97011128  0.32810002  0.44862317     0.14000
C1045       C  0.68336878  0.29598850  0.14690116    -0.15600
C1046       C  0.66911919  0.27279067  0.16286957    -0.30800
H1047       H  0.69326747  0.31303830  0.16430780     0.13400
H1048       H  0.65682356  0.25758191  0.14513884     0.14000
C1049       C  0.68061302  0.26316222  0.39720912    -0.15600
C1050       C  0.65737725  0.27852582  0.40960271    -0.30800
H1051       H  0.69534569  0.25179635  0.41691149     0.13400
H1052       H  0.64212881  0.28865966  0.38941665     0.14000
C1053       C  0.63365910  0.15036282  0.19072572    -0.15600
C1054       C  0.63066787  0.15385048  0.22786386    -0.30800
H1055       H  0.65159586  0.16151592  0.17596338     0.13400
H1056       H  0.61306523  0.14223829  0.24272600     0.14000
C1057       C  0.58939256  0.19524210  0.35404272    -0.15600
C1058       C  0.56868645  0.17841710  0.33769124    -0.30800
H1059       H  0.59098826  0.19646305  0.38457350     0.13400
H1060       H  0.56976292  0.17497457  0.30738443     0.14000
C1061       C  0.58427418  0.32928220  0.30999956    -0.15600
C1062       C  0.61031192  0.32902819  0.29276986    -0.30800
H1063       H  0.57190759  0.30861739  0.31326537     0.13400
H1064       H  0.62306869  0.34952135  0.29046739     0.14000
C1065       C  0.84597921  0.24126522  0.11809325    -0.15600
C1066       C  0.86729400  0.25886057  0.10401203    -0.30800
H1067       H  0.83115640  0.22940008  0.09944954     0.13400
H1068       H  0.88328403  0.26845911  0.12329997     0.14000
C1069       C  0.84120446  0.27467422  0.36823968    -0.15600
C1070       C  0.86394020  0.26094999  0.35187726    -0.30800
H1071       H  0.82349818  0.28435994  0.35135664     0.13400
H1072       H  0.88247465  0.25388135  0.36945460     0.14000
C1073       C  0.77277099  0.20386645  0.25477417    -0.15600
C1074       C  0.75771454  0.22756619  0.26684334    -0.30800
H1075       H  0.76280443  0.18185689  0.25402875     0.13400
H1076       H  0.76913023  0.24887374  0.26843929     0.14000
C1077       C  0.89142745  0.14130809  0.31075930    -0.15600
C1078       C  0.91967451  0.13322983  0.30757681    -0.30800
H1079       H  0.88135185  0.14092539  0.33858725     0.13400
H1080       H  0.93054239  0.13688403  0.28050421     0.14000
C1081       C  0.94226053  0.17235212  0.17528483    -0.15600
C1082       C  0.96431100  0.15778312  0.19271612    -0.30800
H1083       H  0.94154163  0.17426602  0.14466426     0.13400
H1084       H  0.96332592  0.15365177  0.22303220     0.14000
C1085       C  0.92835786  0.30111890  0.21321394    -0.15600
C1086       C  0.92039213  0.32976776  0.21655037    -0.30800
H1087       H  0.94841746  0.29534197  0.19831481     0.13400
H1088       H  0.90050013  0.33532015  0.23197424     0.14000
O1089       O  0.89253088  0.18721805  0.68328549    -0.81000
C1090       C  0.87402506  0.25802826  0.81164803     0.98400
O1091       O  0.89895087  0.25024150  0.79937786    -0.70100
O1092       O  0.89878359  0.19344597  0.79199421    -0.73700
Al1093     Al  0.90966764  0.22440027  0.75914032     1.49000
C1094       C  0.89039866  0.16788991  0.78272373     0.93600
O1095       O  0.82558271  0.19203067  0.74658522    -0.79900
O1096       O  0.85531676  0.25892853  0.68182245    -0.73500
Al1097     Al  0.86011378  0.19165801  0.71595844     1.90100
O1098       O  0.81655445  0.23956271  0.73674657    -0.72500
O1099       O  0.88728271  0.28579618  0.73430438    -0.72400
O1100       O  0.85201824  0.25998888  0.78968066    -0.78000
O1101       O  0.92487557  0.25578965  0.72855703    -0.76200
O1102       O  0.87478572  0.22474238  0.73694819    -1.12400
O1103       O  0.92736809  0.19820212  0.72406192    -0.71600
C1104       C  0.91918462  0.18733459  0.69306141     0.99200
C1105       C  0.80802897  0.21382720  0.74716109     0.95600
Al1106     Al  0.85426612  0.25842309  0.73561353     1.55600
O1107       O  0.87734873  0.16374742  0.75174580    -0.76200
C1108       C  0.91400942  0.28153570  0.72604813     0.99700
C1109       C  0.84650658  0.23803254  0.66089965     0.94600
O1110       O  0.84063253  0.21248509  0.67463233    -0.81500
O1111       O  0.64176974  0.21175522  0.83854279    -0.81000
C1112       C  0.66344356  0.28050107  0.70506453     0.98400
O1113       O  0.63905025  0.27069931  0.71686754    -0.70100
O1114       O  0.63997238  0.21223205  0.72789093    -0.73700
Al1115     Al  0.62802143  0.24491672  0.75789960     1.49000
C1116       C  0.64754519  0.18718661  0.74162560     0.93600
O1117       O  0.71257047  0.21348823  0.77917927    -0.79900
O1118       O  0.68169026  0.28329228  0.83334113    -0.73500
Al1119     Al  0.67604442  0.21440859  0.80727462     1.90100
O1120       O  0.72034281  0.26170376  0.78206133    -0.72500
O1121       O  0.65091071  0.30648802  0.77789648    -0.72400
O1122       O  0.68609032  0.27983676  0.72599043    -0.78000
O1123       O  0.61242086  0.27757510  0.78564025    -0.76200
O1124       O  0.66246013  0.24625994  0.78160868    -1.12400
O1125       O  0.60915544  0.21891212  0.79354268    -0.71600
C1126       C  0.61572512  0.20985690  0.82641349     0.99200
C1127       C  0.72949086  0.23581894  0.77578925     0.95600
Al1128     Al  0.68322633  0.27991001  0.78005075     1.55600
O1129       O  0.66019280  0.18522818  0.77339575    -0.76200
C1130       C  0.62427079  0.30307848  0.78627464     0.99700
C1131       C  0.68811727  0.26318407  0.85730614     0.94600
O1132       O  0.69319589  0.23669312  0.84742433    -0.81500
O1133       O  0.89510005  0.26874260  0.54857338    -0.81000
C1134       C  0.85028457  0.28357106  0.90998564     0.98400
O1135       O  0.86023279  0.26376741  0.93247372    -0.70100
O1136       O  0.89240670  0.24050092  0.98783126    -0.73700
Al1137     Al  0.85653296  0.26372774  0.98602765     1.49000
C1138       C  0.91859703  0.24823528  0.98107959     0.93600
O1139       O  0.92328422  0.33191857  0.97968524    -0.79900
O1140       O  0.86757603  0.35490683  0.49960897    -0.73500
Al1141     Al  0.90351016  0.29717160  0.50963756     1.90100
O1142       O  0.89002839  0.33943036  0.93533799    -0.72500
O1143       O  0.81936513  0.32601792  0.99147888    -0.72400
O1144       O  0.84174246  0.30854819  0.92207483    -0.78000
O1145       O  0.81673848  0.27759071  0.98380707    -0.76200
O1146       O  0.87285020  0.29982736  0.98846227    -1.12400
O1147       O  0.84913830  0.25609391  0.53854470    -0.71600
C1148       C  0.87077618  0.25915177  0.56071361     0.99200
C1149       C  0.91619882  0.34126215  0.94715361     0.95600
Al1150     Al  0.85583749  0.33098839  0.96465478     1.55600
O1151       O  0.92643604  0.27476854  0.98601642    -0.76200
C1152       C  0.80473644  0.30201433  0.99226040     0.99700
C1153       C  0.88042202  0.35196117  0.53118646     0.94600
O1154       O  0.88906769  0.32666176  0.54276677    -0.81500
O1155       O  0.63521916  0.27355947  0.96923554    -0.81000
C1156       C  0.68172909  0.30109378  0.60330764     0.98400
O1157       O  0.68933166  0.28349365  0.57735685    -0.70100
O1158       O  0.64637369  0.25371591  0.54612967    -0.73700
Al1159     Al  0.67582386  0.27911478  0.52604583     1.49000
C1160       C  0.61941845  0.25226202  0.53832305     0.93600
O1161       O  0.59883166  0.32319599  0.55063203    -0.79900
O1162       O  0.66559290  0.36593434  0.50024841    -0.73500
Al1163     Al  0.61764627  0.31226188  0.50553957     1.90100
O1164       O  0.62851365  0.36022108  0.56294663    -0.72500
O1165       O  0.70837535  0.33895147  0.53920223    -0.72400
O1166       O  0.66925444  0.32586974  0.59595601    -0.78000
O1167       O  0.70876025  0.29872642  0.50562137    -0.76200
O1168       O  0.65343372  0.31181676  0.52670248    -1.12400
O1169       O  0.68293224  0.27151093  0.97984568    -0.71600
C1170       C  0.66119760  0.26840850  0.95801229     0.99200
C1171       C  0.60370241  0.34760913  0.56647762     0.95600
Al1172     Al  0.66680668  0.34507699  0.54789498     1.55600
O1173       O  0.60710404  0.27233253  0.51876380    -0.76200
C1174       C  0.72199406  0.32081134  0.51878233     0.99700
C1175       C  0.64261972  0.35663732  0.96941654     0.94600
O1176       O  0.63163125  0.33108290  0.96659737    -0.81500
O1177       O  0.52754341  0.39338412  0.93515200    -0.81000
C1178       C  0.52883252  0.43520068  0.78666793     0.98400
O1179       O  0.51405207  0.44796288  0.81219682    -0.70100
O1180       O  0.48271486  0.40635419  0.84359054    -0.73700
Al1181     Al  0.50788665  0.43506098  0.86428932     1.49000
C1182       C  0.47840109  0.37985650  0.85413197     0.93600
O1183       O  0.54480357  0.35343513  0.84668833    -0.79900
O1184       O  0.59292483  0.42063311  0.88719041    -0.73500
Al1185     Al  0.53606207  0.37552768  0.88991148     1.90100
O1186       O  0.58333573  0.37998050  0.83063025    -0.72500
O1187       O  0.56707540  0.46321905  0.84566130    -0.72400
O1188       O  0.55166794  0.42026843  0.79464734    -0.78000
O1189       O  0.53000722  0.46645694  0.88465460    -0.76200
O1190       O  0.53824157  0.41028214  0.86530859    -1.12400
O1191       O  0.49579834  0.42731082  0.91586203    -0.71600
C1192       C  0.50906916  0.41324258  0.94211433     0.99200
C1193       C  0.56887655  0.35581563  0.82970668     0.95600
Al1194     Al  0.57124215  0.42028209  0.84134034     1.55600
O1195       O  0.49500896  0.36747305  0.87845575    -0.76200
C1196       C  0.55178715  0.47812427  0.86843561     0.99700
C1197       C  0.59446794  0.39841528  0.90945243     0.94600
O1198       O  0.57657415  0.37670373  0.90705033    -0.81500
O1199       O  0.51496401  0.63867696  0.83633419    -0.81000
C1200       C  0.51468464  0.60112203  0.98481282     0.98400
O1201       O  0.50138767  0.58623750  0.95964555    -0.70100
O1202       O  0.46795772  0.62243835  0.92068658    -0.73700
Al1203     Al  0.49729609  0.59533930  0.90602916     1.49000
C1204       C  0.46383499  0.64935857  0.91185462     0.93600
O1205       O  0.53159401  0.67978497  0.92458309    -0.79900
O1206       O  0.58154793  0.61275165  0.88659692    -0.73500
Al1207     Al  0.52327952  0.65669251  0.88162956     1.90100
O1208       O  0.57068780  0.65433958  0.94045050    -0.72500
O1209       O  0.55689514  0.57113201  0.93192990    -0.72400
O1210       O  0.53793720  0.61562970  0.97751278    -0.78000
O1211       O  0.52241258  0.56417870  0.89031592    -0.76200
O1212       O  0.52616827  0.62209518  0.90637838    -1.12400
O1213       O  0.48816502  0.60006561  0.85348574    -0.71600
C1214       C  0.49954723  0.61656459  0.82828876     0.99200
C1215       C  0.55609125  0.67829659  0.94078893     0.95600
Al1216     Al  0.55907484  0.61402719  0.93210329     1.55600
O1217       O  0.48278040  0.66387049  0.89320301    -0.76200
C1218       C  0.54386549  0.55446787  0.90912038     0.99700
C1219       C  0.58248987  0.63471368  0.86360955     0.94600
O1220       O  0.56363230  0.65573416  0.86470614    -0.81500
O1221       O  0.43088589  0.39083123  0.56457167    -0.81000
C1222       C  0.50829959  0.40978344  0.68824119     0.98400
O1223       O  0.49941763  0.38460414  0.67717542    -0.70100
O1224       O  0.44185652  0.38492352  0.67186607    -0.73700
Al1225     Al  0.47189095  0.37386437  0.63822253     1.49000
C1226       C  0.41685064  0.39523052  0.66306605     0.93600
O1227       O  0.44162398  0.46128201  0.62228045    -0.79900
O1228       O  0.50499113  0.42784908  0.56076883    -0.73500
Al1229     Al  0.43882869  0.42476570  0.59462289     1.90100
O1230       O  0.48868361  0.46775538  0.61230217    -0.72500
O1231       O  0.53175767  0.39623387  0.61300218    -0.72400
O1232       O  0.50758771  0.43244203  0.66659632    -0.78000
O1233       O  0.50207471  0.35845170  0.60636629    -0.76200
O1234       O  0.47170958  0.40930313  0.61540631    -1.12400
O1235       O  0.44448682  0.35585043  0.60499510    -0.71600
C1236       C  0.43109542  0.36388791  0.57529708     0.99200
C1237       C  0.46414541  0.47773967  0.62210854     0.95600
Al1238     Al  0.50532729  0.42954142  0.61324820     1.55600
O1239       O  0.41275316  0.40984817  0.63278610    -0.76200
C1240       C  0.52742295  0.36963937  0.60347451     0.99700
C1241       C  0.48417435  0.43519018  0.53875841     0.94600
O1242       O  0.45877077  0.44137755  0.55113540    -0.81500
O1243       O  0.42319983  0.64576033  0.70993153    -0.81000
C1244       C  0.49798312  0.62441020  0.58437004     0.98400
O1245       O  0.48815663  0.64927775  0.59497950    -0.70100
O1246       O  0.42980277  0.65056846  0.60015543    -0.73700
Al1247     Al  0.46112168  0.66062702  0.63378990     1.49000
C1248       C  0.40428465  0.64268084  0.61066506     0.93600
O1249       O  0.42500726  0.57675250  0.64912553    -0.79900
O1250       O  0.49117609  0.60246488  0.71183600    -0.73500
Al1251     Al  0.42614673  0.61215468  0.67829611     1.90100
O1252       O  0.47187560  0.56611277  0.65614342    -0.72500
O1253       O  0.52022495  0.63521937  0.66330363    -0.72400
O1254       O  0.49644552  0.60162861  0.60568184    -0.78000
O1255       O  0.49207451  0.67477013  0.66562827    -0.76200
O1256       O  0.45973502  0.62523670  0.65679479    -1.12400
O1257       O  0.43494414  0.67981333  0.66731561    -0.71600
C1258       C  0.42405612  0.67260465  0.69889222     0.99200
C1259       C  0.44593312  0.55828948  0.64783627     0.95600
Al1260     Al  0.49214366  0.60298461  0.65908584     1.55600
O1261       O  0.40021592  0.63022080  0.64228496    -0.76200
C1262       C  0.51659873  0.66230295  0.67163746     0.99700
C1263       C  0.46999170  0.59532474  0.73305940     0.94600
O1264       O  0.44446885  0.59167599  0.71998582    -0.81500
O1265       O  0.38540651  0.69127515  0.95293191    -0.81000
C1266       C  0.36714563  0.76637642  0.56797461     0.98400
O1267       O  0.38393505  0.74525844  0.55865456    -0.70100
O1268       O  0.39398435  0.69519504  0.52410349    -0.73700
Al1269     Al  0.39703072  0.73586856  0.51006566     1.49000
C1270       C  0.37269885  0.67784950  0.52957198     0.93600
O1271       O  0.30430842  0.70529342  0.97501486    -0.79900
O1272       O  0.31941719  0.76315091  0.94147973    -0.73500
Al1273     Al  0.34627624  0.70266638  0.96742946     1.90100
O1274       O  0.30055720  0.74284902  0.01303921    -0.72500
O1275       O  0.35929588  0.79465329  0.97589002    -0.72400
O1276       O  0.35371327  0.78238997  0.54345758    -0.78000
O1277       O  0.39924785  0.77903124  0.00453979    -0.76200
O1278       O  0.35654705  0.73569739  0.99215489    -1.12400
O1279       O  0.41219754  0.72967325  0.96876594    -0.71600
C1280       C  0.40926648  0.70567617  0.95108584     0.99200
C1281       C  0.28948003  0.72018954  0.99808919     0.95600
Al1282     Al  0.33177863  0.76645753  0.99408303     1.55600
O1283       O  0.34743256  0.68388542  0.51663153    -0.76200
C1284       C  0.38559506  0.79870914  0.98552926     0.99700
C1285       C  0.33053102  0.74807708  0.91489884     0.94600
O1286       O  0.34408195  0.72398049  0.92165585    -0.81500
O1287       O  0.12146049  0.70494104  0.58366177    -0.81000
C1288       C  0.15289135  0.76379336  0.94761472     0.98400
O1289       O  0.12654657  0.75683303  0.95626459    -0.70100
O1290       O  0.11895801  0.70138165  0.97575310    -0.73700
Al1291     Al  0.11125444  0.73851952  0.50265773     1.49000
C1292       C  0.13138957  0.67789684  0.98752714     0.93600
O1293       O  0.19230464  0.70360299  0.52590869    -0.79900
O1294       O  0.16388708  0.77276173  0.58274541    -0.73500
Al1295     Al  0.15631750  0.70585532  0.55346802     1.90100
O1296       O  0.20320493  0.75125698  0.53011520    -0.72500
O1297       O  0.13341498  0.79919392  0.52987164    -0.72400
O1298       O  0.17283348  0.76627911  0.97254326    -0.78000
O1299       O  0.09505608  0.76941365  0.53198989    -0.76200
O1300       O  0.14471776  0.73871723  0.52830948    -1.12400
O1301       O  0.09074718  0.71098759  0.53617853    -0.71600
C1302       C  0.09592020  0.70265631  0.56990114     0.99200
C1303       C  0.21075763  0.72459461  0.52343525     0.95600
Al1304     Al  0.16618038  0.77178019  0.52962025     1.55600
O1305       O  0.13965398  0.67806962  0.51830047    -0.76200
C1306       C  0.10656322  0.79455492  0.53745707     0.99700
C1307       C  0.16998293  0.75215623  0.60608327     0.94600
O1308       O  0.17490680  0.72602675  0.59490840    -0.81500
O1309       O  0.38061839  0.77489708  0.80525429    -0.81000
C1310       C  0.34096312  0.79437166  0.66341662     0.98400
O1311       O  0.34744737  0.77245398  0.68489091    -0.70100
O1312       O  0.37361909  0.74366412  0.74099857    -0.73700
Al1313     Al  0.34096259  0.77055929  0.73737631     1.49000
C1314       C  0.40009890  0.74856508  0.73266717     0.93600
O1315       O  0.41410606  0.83166424  0.73630226    -0.79900
O1316       O  0.35905555  0.86392161  0.76243139    -0.73500
Al1317     Al  0.39414010  0.80355190  0.76787625     1.90100
O1318       O  0.38118015  0.84674929  0.69474191    -0.72500
O1319       O  0.30879403  0.83404952  0.74748348    -0.72400
O1320       O  0.33257232  0.81911883  0.67676962    -0.78000
O1321       O  0.30317972  0.78744832  0.73161547    -0.76200
O1322       O  0.36055265  0.80450778  0.74272448    -1.12400
O1323       O  0.33393550  0.76721737  0.79051337    -0.71600
C1324       C  0.35499014  0.76591408  0.81405022     0.99200
C1325       C  0.40747436  0.84521010  0.70597502     0.95600
Al1326     Al  0.34633051  0.83824548  0.72225620     1.55600
O1327       O  0.41076784  0.77416402  0.73636995    -0.76200
C1328       C  0.29243154  0.81164649  0.74239327     0.99700
C1329       C  0.37224299  0.85860630  0.79327994     0.94600
O1330       O  0.38184597  0.83287532  0.80123742    -0.81500
O1331       O  0.12623192  0.80426500  0.70688810    -0.81000
C1332       C  0.16646230  0.80622930  0.85594814     0.98400
O1333       O  0.17414573  0.78729279  0.83147109    -0.70100
O1334       O  0.13582142  0.75744408  0.79303638    -0.73700
Al1335     Al  0.16655877  0.78347721  0.77826668     1.49000
C1336       C  0.10892434  0.75708262  0.78502768     0.93600
O1337       O  0.08911707  0.83001541  0.79500676    -0.79900
O1338       O  0.15833272  0.87143279  0.75080768    -0.73500
Al1339     Al  0.10990723  0.81709123  0.75236421     1.90100
O1340       O  0.11899936  0.86611534  0.80992685    -0.72500
O1341       O  0.19863953  0.84461465  0.79324546    -0.72400
O1342       O  0.15743252  0.83202944  0.84661903    -0.78000
O1343       O  0.20149183  0.80279457  0.76340592    -0.76200
O1344       O  0.14460398  0.81664965  0.77633033    -1.12400
O1345       O  0.16212727  0.77450929  0.72559551    -0.71600
C1346       C  0.14661661  0.78626630  0.69962422     0.99200
C1347       C  0.09395172  0.85409746  0.81153040     0.95600
Al1348     Al  0.15724164  0.85041539  0.79821150     1.55600
O1349       O  0.09732436  0.77827528  0.76691292    -0.76200
C1350       C  0.21339567  0.82617404  0.77501110     0.99700
C1351       C  0.13642702  0.87357419  0.72888681     0.94600
O1352       O  0.11449404  0.85641407  0.73236397    -0.81500
O1353       O  0.08201795  0.39475349  0.95639284    -0.81000
C1354       C  0.01156340  0.41074057  0.82628385     0.98400
O1355       O  0.02036387  0.38565124  0.83886193    -0.70100
O1356       O  0.07635140  0.39034775  0.84777755    -0.73700
Al1357     Al  0.04685384  0.37630865  0.87978920     1.49000
C1358       C  0.10024766  0.40255391  0.85672359     0.93600
O1359       O  0.06901096  0.46544365  0.89583643    -0.79900
O1360       O  0.00596670  0.42509617  0.95503292    -0.73500
Al1361     Al  0.07358838  0.42864560  0.92464546     1.90100
O1362       O  0.02137768  0.46837403  0.90395014    -0.72500
O1363       O  0.98457652  0.39320933  0.89961999    -0.72400
O1364       O  0.00810022  0.43257973  0.84815233    -0.78000
O1365       O  0.01711468  0.35821620  0.91045488    -0.76200
O1366       O  0.04311223  0.41119059  0.90198399    -1.12400
O1367       O  0.07487577  0.35995807  0.91452794    -0.71600
C1368       C  0.08514431  0.36823468  0.94576782     0.99200
C1369       C  0.04533116  0.48033341  0.89461859     0.95600
Al1370     Al  0.00789867  0.42856440  0.90179662     1.55600
O1371       O  0.10282865  0.41628384  0.88763321    -0.76200
C1372       C  0.99087712  0.36733282  0.91136487     0.99700
C1373       C  0.02534534  0.43384514  0.97811853     0.94600
O1374       O  0.05031793  0.44296266  0.96665711    -0.81500
O1375       O  0.08421537  0.65332991  0.80623497    -0.81000
C1376       C  0.01455222  0.62711597  0.93570713     0.98400
O1377       O  0.02183369  0.65266052  0.92354992    -0.70100
O1378       O  0.07838380  0.65536915  0.91431785    -0.73700
Al1379     Al  0.04615795  0.66558120  0.88271425     1.49000
C1380       C  0.10320822  0.64545681  0.90461792     0.93600
O1381       O  0.08098456  0.58085499  0.86340956    -0.79900
O1382       O  0.01257229  0.60990785  0.80621223    -0.73500
Al1383     Al  0.07984097  0.61805412  0.83638274     1.90100
O1384       O  0.03406816  0.57065480  0.85973421    -0.72500
O1385       O  0.98589602  0.64047126  0.85920289    -0.72400
O1386       O  0.01342022  0.60510457  0.91375349    -0.78000
O1387       O  0.01367354  0.68001125  0.85327317    -0.76200
O1388       O  0.04698063  0.63067265  0.85962543    -1.12400
O1389       O  0.07075545  0.68625989  0.84787616    -0.71600
C1390       C  0.08307323  0.67991127  0.81720409     0.99200
C1391       C  0.06021489  0.56240437  0.86616373     0.95600
Al1392     Al  0.01436831  0.60830171  0.85963781     1.55600
O1393       O  0.10679072  0.63291615  0.87331875    -0.76200
C1394       C  0.98883372  0.66769299  0.85038081     0.99700
C1395       C  0.03298305  0.60447607  0.78302802     0.94600
O1396       O  0.05935424  0.60128771  0.79400142    -0.81500
O1397       O  0.99297614  0.39483851  0.58750895    -0.81000
C1398       C  0.98457063  0.43637189  0.72921660     0.98400
O1399       O  0.00509837  0.43274763  0.70530926    -0.70100
O1400       O  0.03208440  0.41101796  0.64462698    -0.73700
Al1401     Al  0.00044343  0.43789830  0.65224767     1.49000
C1402       C  0.03450332  0.38419276  0.65418572     0.93600
O1403       O  0.95646420  0.35415110  0.66944641    -0.79900
O1404       O  0.91072418  0.40781508  0.63843028    -0.73500
Al1405     Al  0.97489752  0.37730865  0.63106577     1.90100
O1406       O  0.93315190  0.38647493  0.70445084    -0.72500
O1407       O  0.93383001  0.46171905  0.65114035    -0.72400
O1408       O  0.95769312  0.43859872  0.71928821    -0.78000
O1409       O  0.97960791  0.47356203  0.66003738    -0.76200
O1410       O  0.97022463  0.41238232  0.65309389    -1.12400
O1411       O  0.99639904  0.44338099  0.59886226    -0.71600
C1412       C  0.99550736  0.42169436  0.57609230     0.99200
C1413       C  0.94001158  0.35993481  0.69698672     0.95600
Al1414     Al  0.93682022  0.42287063  0.67619737     1.55600
O1415       O  0.01174339  0.36818586  0.65616086    -0.76200
C1416       C  0.95356827  0.48130200  0.65418568     0.99700
C1417       C  0.91447966  0.39079961  0.61078863     0.94600
O1418       O  0.93939498  0.38000923  0.60342890    -0.81500
O1419       O  0.97981652  0.64342208  0.67856969    -0.81000
C1420       C  0.97812357  0.59785587  0.53272771     0.98400
O1421       O  0.99103199  0.58476774  0.56005399    -0.70100
O1422       O  0.02561911  0.62439057  0.58920766    -0.73700
Al1423     Al  0.99708686  0.59866781  0.61104958     1.49000
C1424       C  0.03237420  0.65049605  0.59840664     0.93600
O1425       O  0.96968370  0.68361034  0.58552488    -0.79900
O1426       O  0.91191636  0.62493674  0.62781491    -0.73500
Al1427     Al  0.97473448  0.66146140  0.63101594     1.90100
O1428       O  0.92929723  0.66085436  0.56826651    -0.72500
O1429       O  0.93454808  0.57695781  0.59307731    -0.72400
O1430       O  0.95661457  0.61511475  0.53834863    -0.78000
O1431       O  0.97131419  0.56958953  0.63223839    -0.76200
O1432       O  0.96920954  0.62654848  0.60886028    -1.12400
O1433       O  0.00920120  0.60681541  0.66257563    -0.71600
C1434       C  0.99720315  0.62270125  0.68758034     0.99200
C1435       C  0.94565661  0.68376568  0.56782879     0.95600
Al1436     Al  0.93584671  0.61980991  0.58381812     1.55600
O1437       O  0.01667457  0.66452896  0.62165251    -0.76200
C1438       C  0.94817139  0.56033930  0.61644264     0.99700
C1439       C  0.91203808  0.64920880  0.64564942     0.94600
O1440       O  0.93419737  0.66633848  0.64486105    -0.81500
O1441       O  0.59593726  0.14961271  0.56628745    -0.81000
C1442       C  0.52078573  0.12566979  0.69138348     0.98400
O1443       O  0.52989529  0.15112443  0.68069870    -0.70100
O1444       O  0.58759400  0.15186676  0.67538455    -0.73700
Al1445     Al  0.55711296  0.16353059  0.64181199     1.49000
C1446       C  0.61314614  0.14454993  0.66515276     0.93600
O1447       O  0.58996427  0.07815238  0.62584989    -0.79900
O1448       O  0.52502349  0.11036795  0.56304465    -0.73500
Al1449     Al  0.59079360  0.11505388  0.59727839     1.90100
O1450       O  0.54312160  0.06952055  0.61627790    -0.72500
O1451       O  0.49753371  0.14093598  0.61466082    -0.72400
O1452       O  0.52180923  0.10365337  0.66956016    -0.78000
O1453       O  0.52671003  0.17953939  0.61050538    -0.76200
O1454       O  0.55769772  0.12879969  0.61849309    -1.12400
O1455       O  0.58391063  0.18320949  0.60810209    -0.71600
C1456       C  0.59569382  0.17626649  0.57714838     0.99200
C1457       C  0.56839881  0.06032788  0.62581213     0.95600
Al1458     Al  0.52466817  0.10768872  0.61600344     1.55600
O1459       O  0.61726166  0.13127506  0.63437026    -0.76200
C1460       C  0.50159486  0.16818964  0.60659343     0.99700
C1461       C  0.54595639  0.10356922  0.54134308     0.94600
O1462       O  0.57126941  0.09749552  0.55441019    -0.81500
O1463       O  0.58156256  0.88687502  0.69707451    -0.81000
C1464       C  0.49646101  0.91707772  0.58533615     0.98400
O1465       O  0.50494073  0.89077807  0.59349539    -0.70100
O1466       O  0.56218104  0.88894758  0.59143033    -0.73700
Al1467     Al  0.53498922  0.87628614  0.62816258     1.49000
C1468       C  0.58779853  0.89862997  0.59676937     0.93600
O1469       O  0.56868737  0.96189436  0.64744719    -0.79900
O1470       O  0.50928634  0.92501793  0.71502364    -0.73500
Al1471     Al  0.57243991  0.92308365  0.67117058     1.90100
O1472       O  0.52288059  0.96906221  0.66367257    -0.72500
O1473       O  0.47802074  0.89800905  0.66280879    -0.72400
O1474       O  0.49866330  0.93776906  0.60913098    -0.78000
O1475       O  0.50727135  0.85934106  0.66259225    -0.76200
O1476       O  0.53779435  0.91003853  0.65365724    -1.12400
O1477       O  0.56461441  0.85477317  0.65638431    -0.71600
C1478       C  0.58005001  0.86063213  0.68507421     0.99200
C1479       C  0.54702156  0.97914494  0.65180333     0.95600
Al1480     Al  0.50506817  0.93082562  0.66204198     1.55600
O1481       O  0.59500637  0.91076696  0.62755454    -0.76200
C1482       C  0.48256448  0.87070185  0.66953448     0.99700
C1483       C  0.53187077  0.93046905  0.73483646     0.94600
O1484       O  0.55640087  0.93648590  0.71920718    -0.81500
O1485       O  0.50088654  0.14879691  0.93380626    -0.81000
C1486       C  0.49962940  0.09928324  0.79059653     0.98400
O1487       O  0.51571463  0.08899685  0.81700307    -0.70100
O1488       O  0.54616077  0.13261606  0.84283141    -0.73700
Al1489     Al  0.52180949  0.10454055  0.86718435     1.49000
C1490       C  0.55124554  0.15890613  0.85229947     0.93600
O1491       O  0.48523165  0.18394828  0.83904533    -0.79900
O1492       O  0.43438346  0.12222314  0.88992492    -0.73500
Al1493     Al  0.49333780  0.16471339  0.88588037     1.90100
O1494       O  0.44611888  0.15693744  0.82642943    -0.72500
O1495       O  0.46089317  0.07401717  0.85760948    -0.72400
O1496       O  0.47584872  0.11257816  0.79764982    -0.78000
O1497       O  0.50160306  0.07342273  0.89076763    -0.76200
O1498       O  0.49066644  0.12855152  0.86611699    -1.12400
O1499       O  0.53383498  0.11514741  0.91807677    -0.71600
C1500       C  0.51994664  0.12965223  0.94295858     0.99200
C1501       C  0.46048364  0.18123704  0.82328288     0.95600
Al1502     Al  0.45705104  0.11703361  0.84458518     1.55600
O1503       O  0.53480270  0.17166225  0.87579070    -0.76200
C1504       C  0.47920959  0.06027106  0.87883368     0.99700
C1505       C  0.43220196  0.14797783  0.90398872     0.94600
O1506       O  0.45284577  0.16673719  0.90062616    -0.81500
O1507       O  0.48606816  0.88700607  0.84373108    -0.81000
C1508       C  0.47783094  0.93946733  0.98584462     0.98400
O1509       O  0.49769074  0.94618543  0.96202893    -0.70100
O1510       O  0.52955331  0.90402848  0.93535071    -0.73700
Al1511     Al  0.50473824  0.93260684  0.91112732     1.49000
C1512       C  0.53467598  0.87746497  0.92707288     0.93600
O1513       O  0.46765288  0.85366152  0.93933015    -0.79900
O1514       O  0.41828219  0.91323876  0.88200800    -0.73500
Al1515     Al  0.47710322  0.87180099  0.89196886     1.90100
O1516       O  0.42795310  0.88089157  0.94853151    -0.72500
O1517       O  0.44112783  0.96174730  0.91279807    -0.72400
O1518       O  0.45398969  0.92779860  0.97585012    -0.78000
O1519       O  0.48522676  0.96560674  0.88876034    -0.76200
O1520       O  0.47349893  0.90855678  0.91036793    -1.12400
O1521       O  0.51684993  0.92291979  0.85933433    -0.71600
C1522       C  0.50430659  0.90699967  0.83442293     0.99200
C1523       C  0.44260509  0.85699890  0.95418764     0.95600
Al1524     Al  0.43846656  0.92019302  0.92827952     1.55600
O1525       O  0.51825448  0.86453752  0.90379835    -0.76200
C1526       C  0.46045704  0.97686855  0.89559314     0.99700
C1527       C  0.41640205  0.88700066  0.87005091     0.94600
O1528       O  0.43707429  0.86855789  0.87544743    -0.81500
O1529       O  0.88171211  0.84290955  0.58238081    -0.81000
C1530       C  0.86194315  0.77723616  0.95214675     0.98400
O1531       O  0.88672379  0.78527667  0.96470665    -0.70100
O1532       O  0.88680788  0.84210276  0.97746609    -0.73700
Al1533     Al  0.89498764  0.80446833  0.50635381     1.49000
C1534       C  0.87871575  0.86687048  0.99025668     0.93600
O1535       O  0.81042487  0.84107132  0.52377352    -0.79900
O1536       O  0.83913735  0.77017653  0.58085320    -0.73500
Al1537     Al  0.84711042  0.83915540  0.55173563     1.90100
O1538       O  0.80026368  0.79387204  0.53030967    -0.72500
O1539       O  0.86623620  0.74433513  0.52397592    -0.72400
O1540       O  0.83996801  0.77497402  0.97389859    -0.78000
O1541       O  0.90707572  0.76867456  0.53227668    -0.76200
O1542       O  0.85983070  0.80618642  0.52840488    -1.12400
O1543       O  0.91547519  0.82566964  0.54414211    -0.71600
C1544       C  0.90844143  0.83949612  0.57350224     0.99200
C1545       C  0.79209826  0.81997711  0.52230455     0.95600
Al1546     Al  0.83673310  0.77400347  0.52732085     1.55600
O1547       O  0.86273068  0.86705310  0.51596143    -0.76200
C1548       C  0.89313928  0.74443040  0.53169168     0.99700
C1549       C  0.83320823  0.79058186  0.60411615     0.94600
O1550       O  0.82955738  0.81741671  0.59332816    -0.81500
O1551       O  0.62642494  0.82575474  0.93844769    -0.81000
C1552       C  0.64664536  0.75662125  0.56462445     0.98400
O1553       O  0.62108777  0.76449268  0.55373081    -0.70100
O1554       O  0.61643733  0.82189344  0.54767153    -0.73700
Al1555     Al  0.60777700  0.79087371  0.51398857     1.49000
C1556       C  0.63080018  0.84576586  0.54413821     0.93600
O1557       O  0.70094322  0.82097346  0.98984957    -0.79900
O1558       O  0.66948954  0.75371354  0.93302963    -0.73500
Al1559     Al  0.66256198  0.82108513  0.96588792     1.90100
O1560       O  0.70921498  0.77317972  0.98391521    -0.72500
O1561       O  0.64027119  0.72730962  0.98748476    -0.72400
O1562       O  0.66810954  0.75543143  0.54172481    -0.78000
O1563       O  0.60111638  0.75614851  0.98428395    -0.76200
O1564       O  0.65089958  0.78743304  0.98896511    -1.12400
O1565       O  0.59614197  0.81542877  0.98467357    -0.71600
C1566       C  0.60092797  0.82655015  0.95229175     0.99200
C1567       C  0.71836047  0.79896734  0.99059616     0.95600
Al1568     Al  0.67244304  0.75433668  0.98627917     1.55600
O1569       O  0.64663447  0.85090749  0.51549172    -0.76200
C1570       C  0.61321570  0.73090399  0.98091250     0.99700
C1571       C  0.67385707  0.77508482  0.91012740     0.94600
O1572       O  0.67669752  0.80163428  0.92135449    -0.81500
O1573       O  0.88555117  0.75833760  0.71278249    -0.81000
C1574       C  0.84137612  0.74637130  0.85480218     0.98400
O1575       O  0.84755828  0.76750573  0.83187405    -0.70100
O1576       O  0.87596350  0.79426575  0.77521048    -0.73700
Al1577     Al  0.84365861  0.76689650  0.77842181     1.49000
C1578       C  0.90224291  0.79026963  0.78516320     0.93600
O1579       O  0.91827321  0.70757308  0.78803914    -0.79900
O1580       O  0.85990382  0.67319401  0.75755056    -0.73500
Al1581     Al  0.89850536  0.73299085  0.75353532     1.90100
O1582       O  0.88450876  0.68915481  0.82557563    -0.72500
O1583       O  0.81016494  0.70318210  0.77393502    -0.72400
O1584       O  0.83638366  0.72004996  0.84332267    -0.78000
O1585       O  0.80541047  0.75090017  0.78221877    -0.76200
O1586       O  0.86374215  0.73257821  0.77668625    -1.12400
O1587       O  0.83877654  0.76765761  0.72469170    -0.71600
C1588       C  0.85995204  0.76544817  0.70158911     0.99200
C1589       C  0.91127774  0.69220042  0.81654233     0.95600
Al1590     Al  0.84889540  0.69932001  0.79819332     1.55600
O1591       O  0.91347122  0.76474334  0.78315572    -0.76200
C1592       C  0.79420078  0.72633814  0.77398525     0.99700
C1593       C  0.87523130  0.67718824  0.72808891     0.94600
O1594       O  0.88879985  0.70128618  0.72212216    -0.81500
O1595       O  0.62246145  0.76334329  0.79716197    -0.81000
C1596       C  0.66937665  0.72946222  0.66345204     0.98400
O1597       O  0.66561062  0.75294517  0.68218623    -0.70100
O1598       O  0.63584565  0.78738442  0.72812174    -0.73700
Al1599     Al  0.66709558  0.75755961  0.73467529     1.49000
C1600       C  0.60911553  0.78377453  0.71874765     0.93600
O1601       O  0.58715143  0.70265533  0.73695760    -0.79900
O1602       O  0.63968695  0.66957067  0.77253253    -0.73500
Al1603     Al  0.60894470  0.73220055  0.76396337     1.90100
O1604       O  0.61950624  0.68233071  0.69975488    -0.72500
O1605       O  0.69223894  0.69079450  0.75302101    -0.72400
O1606       O  0.67115317  0.70398002  0.67963811    -0.78000
O1607       O  0.70402070  0.73663577  0.73857434    -0.76200
O1608       O  0.64362625  0.72618599  0.74195400    -1.12400
O1609       O  0.67021920  0.76390483  0.78748862    -0.71600
C1610       C  0.64837330  0.76853685  0.80858654     0.99200
C1611       C  0.59313391  0.68627283  0.70938383     0.95600
Al1612     Al  0.65475904  0.68978276  0.72752113     1.55600
O1613       O  0.59647066  0.75940831  0.72582554    -0.76200
C1614       C  0.71142220  0.71100421  0.75049567     0.99700
C1615       C  0.62779996  0.67958562  0.80221442     0.94600
O1616       O  0.61791255  0.70575847  0.80355974    -0.81500
O1617       O  0.38622316  0.32987814  0.83963106    -0.81000
C1618       C  0.36433320  0.26210593  0.70766259     0.98400
O1619       O  0.38874316  0.27191132  0.71922463    -0.70100
O1620       O  0.39021046  0.33018814  0.72913605    -0.73700
Al1621     Al  0.40047471  0.29671452  0.75997392     1.49000
C1622       C  0.38357802  0.35542294  0.74204861     0.93600
O1623       O  0.31718908  0.33247030  0.77602690    -0.79900
O1624       O  0.34491283  0.26186663  0.83610797    -0.73500
Al1625     Al  0.35267979  0.32939060  0.80652427     1.90100
O1626       O  0.30717522  0.28468921  0.78197992    -0.72500
O1627       O  0.37508341  0.23584613  0.78318397    -0.72400
O1628       O  0.34158575  0.26311679  0.72828153    -0.78000
O1629       O  0.41502163  0.26283762  0.78809033    -0.76200
O1630       O  0.36566744  0.29679542  0.78267831    -1.12400
O1631       O  0.41959978  0.32144547  0.79615631    -0.71600
C1632       C  0.41263414  0.33079598  0.82846692     0.99200
C1633       C  0.29896482  0.31112799  0.77491105     0.95600
Al1634     Al  0.34372677  0.26413273  0.78248276     1.55600
O1635       O  0.37102136  0.35781057  0.77349944    -0.76200
C1636       C  0.40222150  0.23781964  0.78992381     0.99700
C1637       C  0.33744963  0.28236692  0.85824250     0.94600
O1638       O  0.33209595  0.30833924  0.84595204    -0.81500
O1639       O  0.11989216  0.35433687  0.69671536    -0.81000
C1640       C  0.15983188  0.27489591  0.80603768     0.98400
O1641       O  0.13974306  0.29400350  0.80121008    -0.70100
O1642       O  0.11557958  0.34321753  0.77327729    -0.73700
Al1643     Al  0.12101184  0.30339400  0.75508122     1.49000
C1644       C  0.13200344  0.36589385  0.77580006     0.93600
O1645       O  0.20425599  0.34841304  0.72091736    -0.79900
O1646       O  0.19307443  0.29293778  0.67701182    -0.73500
Al1647     Al  0.16131134  0.34761095  0.71135864     1.90100
O1648       O  0.21037453  0.30573306  0.75020048    -0.72500
O1649       O  0.15634159  0.25524375  0.70574041    -0.72400
O1650       O  0.17553102  0.26635411  0.77865522    -0.78000
O1651       O  0.11819846  0.26185586  0.74212427    -0.76200
O1652       O  0.15478247  0.31116884  0.73153042    -1.12400
O1653       O  0.09876718  0.31158059  0.71131241    -0.71600
C1654       C  0.09795416  0.33663964  0.69490144     0.99200
C1655       C  0.22040873  0.33056193  0.73997000     0.95600
Al1656     Al  0.18172647  0.28265340  0.72816785     1.55600
O1657       O  0.15613404  0.36727881  0.75833906    -0.76200
C1658       C  0.13214609  0.24645414  0.71854061     0.99700
C1659       C  0.18177287  0.31065888  0.65274191     0.94600
O1660       O  0.16656066  0.33261859  0.66262920    -0.81500
O1661       O  0.39572730  0.26094749  0.96582552    -0.81000
C1662       C  0.34554619  0.23870766  0.60728618     0.98400
O1663       O  0.33635187  0.25502508  0.58016305    -0.70100
O1664       O  0.37812054  0.28644316  0.54711906    -0.73700
Al1665     Al  0.34944838  0.25937334  0.52848291     1.49000
C1666       C  0.40519130  0.28830709  0.53984484     0.93600
O1667       O  0.42922367  0.21722350  0.55456567    -0.79900
O1668       O  0.36378036  0.17110372  0.50908716    -0.73500
Al1669     Al  0.40888410  0.22847168  0.50945297     1.90100
O1670       O  0.40000280  0.18038726  0.57008271    -0.72500
O1671       O  0.31965103  0.19899252  0.54666893    -0.72400
O1672       O  0.35920459  0.21451414  0.60143772    -0.78000
O1673       O  0.31718255  0.23763451  0.50877552    -0.76200
O1674       O  0.37335207  0.22754932  0.53089504    -1.12400
O1675       O  0.34881017  0.26848046  0.97909636    -0.71600
C1676       C  0.36962313  0.26680737  0.95540942     0.99200
C1677       C  0.42486555  0.19281118  0.57174173     0.95600
Al1678     Al  0.36156741  0.19413827  0.55478351     1.55600
O1679       O  0.41812167  0.26828663  0.52181840    -0.76200
C1680       C  0.30505312  0.21561239  0.52451864     0.99700
C1681       C  0.38949419  0.17845322  0.98107612     0.94600
O1682       O  0.40051042  0.20362817  0.97355020    -0.81500
O1683       O  0.15148743  0.25114696  0.55592245    -0.81000
C1684       C  0.18722930  0.24814408  0.90279083     0.98400
O1685       O  0.20110252  0.26225112  0.92799946    -0.70100
O1686       O  0.16290222  0.29744489  0.95879106    -0.73700
Al1687     Al  0.18966869  0.26965746  0.97989823     1.49000
C1688       C  0.13787512  0.30440772  0.97084995     0.93600
O1689       O  0.10564992  0.24018676  0.96392612    -0.79900
O1690       O  0.16641726  0.18292597  0.50326077    -0.73500
Al1691     Al  0.12915311  0.24538429  0.51195978     1.90100
O1692       O  0.12791410  0.19895911  0.94731714    -0.72500
O1693       O  0.21203331  0.20595294  0.96515510    -0.72400
O1694       O  0.17124907  0.22603228  0.91142869    -0.78000
O1695       O  0.21945911  0.24490053  0.00033535    -0.76200
O1696       O  0.16280622  0.24091207  0.98194374    -1.12400
O1697       O  0.18239247  0.28418455  0.53286932    -0.71600
C1698       C  0.17100525  0.27051596  0.56078236     0.99200
C1699       C  0.10531556  0.21577796  0.94687469     0.95600
Al1700     Al  0.16917742  0.20649280  0.95906947     1.55600
O1701       O  0.12547068  0.28872628  0.99615462    -0.76200
C1702       C  0.22850696  0.22067899  0.98696059     0.99700
C1703       C  0.14477359  0.18234602  0.52569408     0.94600
O1704       O  0.12726869  0.20426373  0.52767339    -0.81500
O1705       O  0.95504977  0.14828174  0.95911615    -0.81000
C1706       C  0.01786788  0.12673621  0.82263460     0.98400
O1707       O  0.01011411  0.15181580  0.83540140    -0.70100
O1708       O  0.95316733  0.15316876  0.85116652    -0.73700
Al1709     Al  0.98757240  0.16347836  0.87887397     1.49000
C1710       C  0.92968126  0.14162789  0.86385417     0.93600
O1711       O  0.95671030  0.07689304  0.90222712    -0.79900
O1712       O  0.02832184  0.10803343  0.94960546    -0.73500
Al1713     Al  0.95864646  0.11379064  0.92881480     1.90100
O1714       O  0.00401068  0.06847798  0.90183098    -0.72500
O1715       O  0.04874679  0.13833409  0.89214743    -0.72400
O1716       O  0.01773342  0.10357170  0.84359552    -0.78000
O1717       O  0.02226371  0.17767996  0.90484219    -0.76200
O1718       O  0.98899957  0.12792284  0.90160947    -1.12400
O1719       O  0.96446917  0.18286420  0.91656179    -0.71600
C1720       C  0.95395652  0.17512393  0.94817872     0.99200
C1721       C  0.97809457  0.05940274  0.89810002     0.95600
Al1722     Al  0.02174462  0.10624388  0.89727232     1.55600
O1723       O  0.92895783  0.12810123  0.89526181    -0.76200
C1724       C  0.04706569  0.16483733  0.90294331     0.99700
C1725       C  0.01003047  0.10262295  0.97556923     0.94600
O1726       O  0.98312952  0.09762528  0.96841714    -0.81500
O1727       O  0.92444441  0.89428813  0.80706806    -0.81000
C1728       C  0.00053433  0.91689568  0.93151962     0.98400
O1729       O  0.99082982  0.89186800  0.92122265    -0.70100
O1730       O  0.93318432  0.89248573  0.91665058    -0.73700
Al1731     Al  0.96303986  0.88030223  0.88324119     1.49000
C1732       C  0.90788679  0.90146414  0.90695319     0.93600
O1733       O  0.93024569  0.96533470  0.86504551    -0.79900
O1734       O  0.99506848  0.93390240  0.80276115    -0.73500
Al1735     Al  0.92941710  0.92892412  0.83708208     1.90100
O1736       O  0.97706175  0.97384136  0.85530298    -0.72500
O1737       O  0.02214485  0.90314522  0.85540976    -0.72400
O1738       O  0.99888128  0.93950606  0.90975836    -0.78000
O1739       O  0.99299476  0.86446239  0.85191882    -0.76200
O1740       O  0.96250464  0.91507357  0.85885612    -1.12400
O1741       O  0.93579193  0.86094073  0.85079710    -0.71600
C1742       C  0.92484466  0.86759510  0.81896703     0.99200
C1743       C  0.95211623  0.98264278  0.86606022     0.95600
Al1744     Al  0.99549626  0.93609799  0.85591891     1.55600
O1745       O  0.90328713  0.91317668  0.87485336    -0.76200
C1746       C  0.01798517  0.87612738  0.84756503     0.99700
C1747       C  0.97416801  0.94124158  0.78091703     0.94600
O1748       O  0.94881509  0.94692191  0.79375275    -0.81500
O1749       O  0.04441734  0.15150504  0.57538743    -0.81000
C1750       C  0.03951976  0.10459371  0.72261220     0.98400
O1751       O  0.02324962  0.09584607  0.69599733    -0.70100
O1752       O  0.99532805  0.14021220  0.66441212    -0.73700
Al1753     Al  0.01955559  0.11036621  0.64466524     1.49000
C1754       C  0.99241380  0.16647745  0.65222432     0.93600
O1755       O  0.05833067  0.18859157  0.66809654    -0.79900
O1756       O  0.10858727  0.12446609  0.62522111    -0.73500
Al1757     Al  0.05139367  0.16867006  0.62247896     1.90100
O1758       O  0.09558685  0.16034759  0.68623659    -0.72500
O1759       O  0.07960870  0.07856554  0.65861991    -0.72400
O1760       O  0.06381729  0.11722930  0.71599965    -0.78000
O1761       O  0.03913527  0.07757591  0.62505142    -0.76200
O1762       O  0.05175434  0.13308892  0.64546201    -1.12400
O1763       O  0.00963864  0.12006713  0.59313068    -0.71600
C1764       C  0.02458091  0.13297219  0.56753202     0.99200
C1765       C  0.08122323  0.18464400  0.68758321     0.95600
Al1766     Al  0.08422945  0.12089653  0.66957274     1.55600
O1767       O  0.01084643  0.17776343  0.62985068    -0.76200
C1768       C  0.06144310  0.06456698  0.63824566     0.99700
C1769       C  0.11158235  0.14904710  0.60756447     0.94600
O1770       O  0.09209737  0.16903007  0.60938807    -0.81500
O1771       O  0.01151323  0.89014338  0.67527378    -0.81000
C1772       C  0.02411539  0.93593772  0.53278129     0.98400
O1773       O  0.00326259  0.92827894  0.55459758    -0.70100
O1774       O  0.97782086  0.89669663  0.60945940    -0.73700
Al1775     Al  0.00215392  0.93197642  0.60790658     1.49000
C1776       C  0.98393330  0.86980871  0.60294794     0.93600
O1777       O  0.06723195  0.86133101  0.60525193    -0.79900
O1778       O  0.09522759  0.92178484  0.63323916    -0.73500
Al1779     Al  0.03913685  0.87932343  0.63723233     1.90100
O1780       O  0.08072312  0.89625166  0.56508096    -0.72500
O1781       O  0.06369705  0.96836756  0.61502344    -0.72400
O1782       O  0.04921332  0.94305609  0.54561620    -0.78000
O1783       O  0.01643737  0.97201982  0.60515153    -0.76200
O1784       O  0.03714318  0.91400013  0.61222434    -1.12400
O1785       O  0.99894681  0.93656176  0.66139125    -0.71600
C1786       C  0.00151900  0.91521165  0.68504423     0.99200
C1787       C  0.08049131  0.86936182  0.57563927     0.95600
Al1788     Al  0.06936413  0.93086437  0.59154319     1.55600
O1789       O  0.01001475  0.86065634  0.60662393    -0.76200
C1790       C  0.04070202  0.98388370  0.61326276     0.99700
C1791       C  0.09042300  0.90934257  0.66483573     0.94600
O1792       O  0.06791498  0.89358812  0.67048883    -0.81500
C1793       C  0.06483462  0.03219578  0.63099334    -0.15600
C1794       C  0.04112136  0.01629369  0.61998379    -0.30800
H1795       H  0.08580159  0.02126269  0.63647497     0.13400
H1796       H  0.02008592  0.02758797  0.61622780     0.14000
C1797       C  0.01957323  0.93537633  0.49150844    -0.15600
C1798       C  0.01507323  0.91811024  0.96873563    -0.30800
H1799       H  0.02982043  0.95229991  0.47361385     0.13400
H1800       H  0.02328364  0.89699806  0.98016188     0.14000
C1801       C  0.97916486  0.94131034  0.73983052    -0.15600
C1802       C  0.99433779  0.91856132  0.72521982    -0.30800
H1803       H  0.96902019  0.95822377  0.72173332     0.13400
H1804       H  0.00210341  0.90080651  0.74411119     0.14000
C1805       C  0.00066042  0.10560650  0.51565979    -0.15600
C1806       C  0.01963015  0.12637451  0.52770843    -0.30800
H1807       H  0.98622294  0.09384008  0.53523916     0.13400
H1808       H  0.03277265  0.13892105  0.50730608     0.14000
C1809       C  0.02905474  0.12600275  0.78361805    -0.15600
C1810       C  0.02913175  0.10170905  0.76192150    -0.30800
H1811       H  0.03666427  0.14710316  0.77155661     0.13400
H1812       H  0.01906456  0.08103978  0.77175426     0.14000
C1813       C  0.94967095  0.01366287  0.87959428    -0.15600
C1814       C  0.97476422  0.02793657  0.88835658    -0.30800
H1815       H  0.92838307  0.02458204  0.88171509     0.13400
H1816       H  0.99553042  0.01584909  0.88701531     0.14000
C1817       C  0.13763829  0.15536244  0.54821656    -0.15600
C1818       C  0.13831105  0.15660732  0.58602313    -0.30800
H1819       H  0.12231236  0.14002352  0.53511842     0.13400
H1820       H  0.15201867  0.17368421  0.59862674     0.14000
C1821       C  0.07737831  0.20603151  0.92922534    -0.15600
C1822       C  0.07505832  0.17897195  0.91403844    -0.30800
H1823       H  0.05799670  0.22007513  0.93175114     0.13400
H1824       H  0.09464532  0.16512028  0.91208708     0.14000
C1825       C  0.25926738  0.21084766  0.99560051    -0.15600
C1826       C  0.27293633  0.21129946  0.51984447    -0.30800
H1827       H  0.27021217  0.19512070  0.97728258     0.13400
H1828       H  0.25990519  0.20688562  0.54501912     0.14000
C1829       C  0.12075277  0.21776593  0.70541308    -0.15600
C1830       C  0.09248054  0.20994350  0.70897890    -0.30800
H1831       H  0.13552420  0.20386961  0.68907960     0.13400
H1832       H  0.07687230  0.22496881  0.72207943     0.14000
C1833       C  0.16267539  0.26092326  0.84374576    -0.15600
C1834       C  0.18808968  0.25879520  0.86310170    -0.30800
H1835       H  0.14223585  0.25477139  0.85777032     0.13400
H1836       H  0.20825043  0.26809944  0.85145613     0.14000
C1837       C  0.18417231  0.30464065  0.61208051    -0.15600
C1838       C  0.17953717  0.27689876  0.59992635    -0.30800
H1839       H  0.18329459  0.32329968  0.59212380     0.13400
H1840       H  0.17686734  0.25888020  0.62057934     0.14000
C1841       C  0.33834621  0.27720686  0.89914435    -0.15600
C1842       C  0.36450154  0.27075678  0.91472747    -0.30800
H1843       H  0.31926666  0.28215033  0.91642682     0.13400
H1844       H  0.38349918  0.26790823  0.89638586     0.14000
C1845       C  0.34138788  0.24912563  0.64625575    -0.15600
C1846       C  0.36409822  0.24795194  0.67039598    -0.30800
H1847       H  0.32154335  0.26134219  0.65346422     0.13400
H1848       H  0.38485527  0.23849575  0.66093613     0.14000
C1849       C  0.26706956  0.31471763  0.76804030    -0.15600
C1850       C  0.25205785  0.33655469  0.74932538    -0.30800
H1851       H  0.25500483  0.29509653  0.77769172     0.13400
H1852       H  0.26315680  0.35636601  0.73854956     0.14000
C1853       C  0.76242678  0.72749628  0.76311033    -0.15600
C1854       C  0.74292386  0.70485160  0.76125304    -0.30800
H1855       H  0.75423887  0.74991576  0.75736272     0.13400
H1856       H  0.74981000  0.68223059  0.76824388     0.14000
C1857       C  0.91931448  0.81510896  0.80100502    -0.15600
C1858       C  0.91113447  0.84384875  0.79653815    -0.30800
H1859       H  0.93827740  0.80948085  0.81854472     0.13400
H1860       H  0.89331748  0.84985868  0.77730704     0.14000
C1861       C  0.65041502  0.75118048  0.60543322    -0.15600
C1862       C  0.66967731  0.73217809  0.62178148    -0.30800
H1863       H  0.63504998  0.76307710  0.62335235     0.13400
H1864       H  0.68342103  0.71769418  0.60494649     0.14000
C1865       C  0.67432258  0.76899692  0.86949411    -0.15600
C1866       C  0.65262767  0.77956089  0.84715898    -0.30800
H1867       H  0.68949995  0.75227569  0.85907053     0.13400
H1868       H  0.63540389  0.79332423  0.85921948     0.14000
C1869       C  0.83254246  0.78378690  0.64487341    -0.15600
C1870       C  0.85592755  0.77029851  0.66067908    -0.30800
H1871       H  0.81540743  0.79332861  0.66233772     0.13400
H1872       H  0.87397751  0.76339287  0.64259275     0.14000
C1873       C  0.85955724  0.77157559  0.91121757    -0.15600
C1874       C  0.84053209  0.75224768  0.89585968    -0.30800
H1875       H  0.87563068  0.78259968  0.89304858     0.13400
H1876       H  0.82619714  0.73890709  0.91390779     0.14000
C1877       C  0.74991304  0.80082520  0.99985873    -0.15600
C1878       C  0.76063973  0.82471563  0.51169091    -0.30800
H1879       H  0.75384782  0.77856449  0.50623452     0.13400
H1880       H  0.75160482  0.84709542  0.50932309     0.14000
C1881       C  0.88671556  0.89381150  0.96899017    -0.15600
C1882       C  0.88298237  0.89433847  0.93158098    -0.30800
H1883       H  0.90373528  0.90754472  0.98155505     0.13400
H1884       H  0.86546465  0.88119074  0.91911768     0.14000
C1885       C  0.93179373  0.85432027  0.59571336    -0.15600
C1886       C  0.96069148  0.84943148  0.58933826    -0.30800
H1887       H  0.92517046  0.87185342  0.61481891     0.13400
H1888       H  0.96745878  0.83101638  0.57169481     0.14000
C1889       C  0.55914465  0.86153980  0.94679808    -0.15600
C1890       C  0.57655760  0.84101660  0.93067081    -0.30800
H1891       H  0.56387245  0.86807860  0.97562093     0.13400
H1892       H  0.57415658  0.83633236  0.90082456     0.14000
C1893       C  0.44711226  0.20798210  0.80518212    -0.09200
C1894       C  0.41784271  0.21001836  0.80063186    -0.30800
H1895       H  0.46084936  0.22744610  0.80011820     0.13400
H1896       H  0.40424473  0.19057247  0.80654237     0.14000
C1897       C  0.39737226  0.15325783  0.95646038    -0.15600
C1898       C  0.40466844  0.15908719  0.92045972    -0.30800
H1899       H  0.40464429  0.13263872  0.97006545     0.13400
H1900       H  0.39735512  0.18028075  0.90827785     0.14000
C1901       C  0.45526731  0.00883808  0.88508906    -0.15600
C1902       C  0.47797287  0.02792039  0.88832243    -0.30800
H1903       H  0.43350176  0.01671862  0.87694753     0.13400
H1904       H  0.49859300  0.01894094  0.89947935     0.14000
C1905       C  0.59746824  0.83689182  0.70440606    -0.15600
C1906       C  0.59206019  0.80773797  0.69948384    -0.30800
H1907       H  0.61481031  0.84357336  0.72373111     0.13400
H1908       H  0.57343380  0.80110268  0.68218845     0.14000
C1909       C  0.60974321  0.89177207  0.56767257    -0.15600
C1910       C  0.62730109  0.86804738  0.57392666    -0.30800
H1911       H  0.60388142  0.89749519  0.53865822     0.13400
H1912       H  0.62970251  0.85972513  0.60280304     0.14000
C1913       C  0.48360135  0.92294766  0.54757974    -0.15600
C1914       C  0.50037024  0.93339162  0.51896996    -0.30800
H1915       H  0.46161366  0.91458317  0.54200280     0.13400
H1916       H  0.46558288  0.93234494  0.04479569     0.14000
C1917       C  0.52966625  0.92900840  0.77683139    -0.15600
C1918       C  0.50934629  0.91122387  0.79326378    -0.30800
H1919       H  0.54550149  0.94089061  0.79397956     0.13400
H1920       H  0.49498236  0.89834866  0.77508481     0.14000
C1921       C  0.44905360  0.17704469  0.59178836    -0.15600
C1922       C  0.47704250  0.18686043  0.59191640    -0.30800
H1923       H  0.44397240  0.15540947  0.60446156     0.13400
H1924       H  0.48228291  0.20859880  0.57966752     0.14000
C1925       C  0.52482832  0.12484599  0.98362312    -0.15600
C1926       C  0.54245873  0.10391318  0.99897430    -0.30800
H1927       H  0.51236985  0.13929086  0.00220071     0.13400
H1928       H  0.55676761  0.09394857  0.48143373     0.14000
C1929       C  0.50789851  0.12278764  0.72936926    -0.15600
C1930       C  0.50980221  0.09798368  0.75112172    -0.30800
H1931       H  0.49856853  0.14294894  0.74125901     0.13400
H1932       H  0.52189517  0.07861047  0.74148478     0.14000
C1933       C  0.57202620  0.02820336  0.63625840    -0.15600
C1934       C  0.54785348  0.01136679  0.64236255    -0.30800
H1935       H  0.59389455  0.01857756  0.63899897     0.13400
H1936       H  0.52635768  0.02206355  0.64107072     0.14000
C1937       C  0.93532354  0.71202468  0.55033513    -0.15600
C1938       C  0.90690986  0.71547371  0.54095127    -0.30800
H1939       H  0.95006868  0.73108576  0.54968254     0.13400
H1940       H  0.89223571  0.69635296  0.54251754     0.14000
C1941       C  0.88570113  0.66029231  0.66489997    -0.15600
C1942       C  0.88018278  0.65289435  0.70105767    -0.30800
H1943       H  0.87865570  0.68229231  0.65504928     0.13400
H1944       H  0.88740208  0.63144343  0.71241181     0.14000
C1945       C  0.94793373  0.51372545  0.65364746    -0.15600
C1946       C  0.93864571  0.52892107  0.62291177    -0.30800
H1947       H  0.95943748  0.52603599  0.67542689     0.13400
H1948       H  0.92785191  0.51726122  0.60003689     0.14000
C1949       C  0.06433609  0.37320552  0.66428965    -0.15600
C1950       C  0.06974093  0.34537280  0.67665307    -0.30800
H1951       H  0.08208152  0.38944101  0.66427630     0.13400
H1952       H  0.05192333  0.32921952  0.67711776     0.14000
C1953       C  0.93505176  0.67666842  0.83825301    -0.15600
C1954       C  0.96356254  0.68512717  0.83495320    -0.30800
H1955       H  0.92931915  0.65738533  0.85564383     0.13400
H1956       H  0.96882978  0.70536262  0.81909347     0.14000
C1957       C  0.00300168  0.61805038  0.72815767    -0.15600
C1958       C  0.02641155  0.60332807  0.74219233    -0.30800
H1959       H  0.98834560  0.62952380  0.74740422     0.13400
H1960       H  0.04243035  0.59352941  0.72328167     0.14000
C1961       C  0.00859116  0.62419793  0.97652317    -0.15600
C1962       C  0.99040701  0.60402461  0.99225654    -0.30800
H1963       H  0.01832784  0.64114990  0.99434825     0.13400
H1964       H  0.00211008  0.57495083  0.48653985     0.14000
C1965       C  0.01758267  0.44268485  0.51820012    -0.15600
C1966       C  0.99670108  0.42638985  0.53518937    -0.30800
H1967       H  0.03262904  0.44553638  0.03807316     0.13400
H1968       H  0.98306948  0.41161522  0.51845022     0.14000
C1969       C  0.00589470  0.41368513  0.78546628    -0.15600
C1970       C  0.99155016  0.43683398  0.76968269    -0.30800
H1971       H  0.01308369  0.39546437  0.76768951     0.13400
H1972       H  0.98201230  0.45407692  0.78711838     0.14000
C1973       C  0.06616154  0.53075632  0.87700354    -0.15600
C1974       C  0.04352382  0.51185530  0.88212947    -0.30800
H1975       H  0.08866124  0.52325838  0.88163360     0.13400
H1976       H  0.02122464  0.52023866  0.87807889     0.14000
C1977       C  0.12260257  0.32983078  0.95258407    -0.15600
C1978       C  0.10173255  0.34639230  0.96904787    -0.30800
H1979       H  0.12851606  0.33477220  0.92338830     0.13400
H1980       H  0.09688705  0.34377683  0.99893749     0.14000
C1981       C  0.12562749  0.39724429  0.83165599    -0.15600
C1982       C  0.12001519  0.39196994  0.79511241    -0.30800
H1983       H  0.14608856  0.38959122  0.84449080     0.13400
H1984       H  0.09897678  0.39952555  0.78368509     0.14000
C1985       C  0.13514544  0.89596568  0.69827360    -0.15600
C1986       C  0.11077418  0.91274508  0.69663361    -0.30800
H1987       H  0.14591958  0.88983443  0.67212715     0.13400
H1988       H  0.09980249  0.91716599  0.72328837     0.14000
C1989       C  0.06998588  0.86942836  0.83116579    -0.15600
C1990       C  0.04249019  0.85836019  0.83272653    -0.30800
H1991       H  0.07477245  0.89119509  0.84281733     0.13400
H1992       H  0.03765572  0.83645646  0.82154073     0.14000
C1993       C  0.09031770  0.73249476  0.79902910    -0.15600
C1994       C  0.09813003  0.70375713  0.79554349    -0.30800
H1995       H  0.07023326  0.73827599  0.81388159     0.13400
H1996       H  0.11706059  0.69789915  0.77845232     0.14000
C1997       C  0.38032835  0.88298106  0.81881568    -0.15600
C1998       C  0.38915513  0.87548826  0.85376729    -0.30800
H1999       H  0.38673263  0.90427278  0.80626002     0.13400
H2000       H  0.38273582  0.85374057  0.86508759     0.14000
C2001       C  0.43060751  0.86064330  0.68424084    -0.15600
C2002       C  0.45903670  0.85237201  0.68651962    -0.30800
H2003       H  0.42420872  0.87965574  0.66660352     0.13400
H2004       H  0.46522818  0.83221193  0.70208689     0.14000
C2005       C  0.26037758  0.81181611  0.74769361    -0.15600
C2006       C  0.24508798  0.83155483  0.76783424    -0.30800
H2007       H  0.24894531  0.79269433  0.73612357     0.13400
H2008       H  0.25598527  0.85059210  0.78030269     0.14000
C2009       C  0.08861074  0.81818513  0.55441209    -0.15600
C2010       C  0.09664501  0.84701574  0.55370219    -0.30800
H2011       H  0.06859281  0.81148495  0.56904992     0.13400
H2012       H  0.11555211  0.85424561  0.53718015     0.14000
C2013       C  0.12882115  0.65216932  0.92833195    -0.15600
C2014       C  0.12646712  0.65070319  0.96596858    -0.30800
H2015       H  0.14470059  0.66747129  0.91576564     0.13400
H2016       H  0.11104053  0.63494366  0.97855620     0.14000
C2017       C  0.05796421  0.66474896  0.57963006    -0.15600
C2018       C  0.07208751  0.68888985  0.59255015    -0.30800
H2019       H  0.06532604  0.65500909  0.55331265     0.13400
H2020       H  0.06678937  0.69787680  0.62003091     0.14000
C2021       C  0.16685288  0.79784981  0.89631348    -0.15600
C2022       C  0.15963356  0.77015816  0.90780470    -0.30800
H2023       H  0.16893281  0.81543529  0.91698155     0.13400
H2024       H  0.15400422  0.75337940  0.88714643     0.14000
C2025       C  0.16947727  0.75827310  0.64689857    -0.15600
C2026       C  0.15177997  0.77991628  0.65958177    -0.30800
H2027       H  0.18088317  0.74337991  0.66654428     0.13400
H2028       H  0.13913538  0.79326531  0.63934786     0.14000
C2029       C  0.39995810  0.82691960  0.97353069    -0.15600
C2030       C  0.42923826  0.83139840  0.97473938    -0.30800
H2031       H  0.38601596  0.84361792  0.95981958     0.13400
H2032       H  0.44362599  0.81398739  0.98592699     0.14000
C2033       C  0.35109161  0.75217932  0.85160308    -0.15600
C2034       C  0.32922383  0.75931581  0.87543471    -0.30800
H2035       H  0.36918493  0.73829073  0.86174526     0.13400
H2036       H  0.31266676  0.77566860  0.86714633     0.14000
C2037       C  0.36307953  0.77138879  0.60848039    -0.15600
C2038       C  0.34402456  0.79133668  0.62232421    -0.30800
H2039       H  0.37579782  0.75730880  0.62778730     0.13400
H2040       H  0.33193543  0.80637125  0.60358069     0.14000
C2041       C  0.26218352  0.73947301  0.51798585    -0.15600
C2042       C  0.24167557  0.71839302  0.51278184    -0.30800
H2043       H  0.24689784  0.69716154  0.98732827     0.13400
H2044       H  0.24742197  0.69719218  0.50021225     0.14000
C2045       C  0.56926050  0.67052880  0.68885993    -0.15600
C2046       C  0.54084878  0.67943321  0.68951968    -0.30800
H2047       H  0.57529920  0.65104740  0.67264789     0.13400
H2048       H  0.53507721  0.69987979  0.70392462     0.14000
C2049       C  0.41054642  0.69581990  0.72181858    -0.15600
C2050       C  0.41805135  0.72458669  0.71707537    -0.30800
H2051       H  0.39298402  0.68946121  0.74112061     0.13400
H2052       H  0.43672932  0.73075105  0.69947028     0.14000
C2053       C  0.37935227  0.65041986  0.55050361    -0.15600
C2054       C  0.37845264  0.65140767  0.58802595    -0.30800
H2055       H  0.39616446  0.63647979  0.53781910     0.13400
H2056       H  0.36248155  0.66579320  0.60162229     0.14000
C2057       C  0.42302877  0.31278311  0.55481222    -0.15600
C2058       C  0.41431092  0.34138102  0.55426591    -0.30800
H2059       H  0.44433073  0.30689837  0.56688381     0.13400
H2060       H  0.39425752  0.34799424  0.53957586     0.14000
C2061       C  0.39158560  0.38610628  0.68601342    -0.15600
C2062       C  0.39495816  0.38217733  0.72312566    -0.30800
H2063       H  0.37355133  0.37517630  0.67149288     0.13400
H2064       H  0.41262240  0.39371439  0.73765371     0.14000
C2065       C  0.46414571  0.50885791  0.63394544    -0.15600
C2066       C  0.44075973  0.52693941  0.63704503    -0.30800
H2067       H  0.48607672  0.51780004  0.63888664     0.13400
H2068       H  0.41862941  0.51900043  0.63120573     0.14000
C2069       C  0.56884630  0.70515121  0.95754137    -0.15600
C2070       C  0.59683029  0.70456509  0.96934121    -0.30800
H2071       H  0.55629957  0.72580902  0.95730956     0.13400
H2072       H  0.60926751  0.68383177  0.96859284     0.14000
C2073       C  0.60577440  0.63711427  0.83498451    -0.15600
C2074       C  0.62333118  0.66103451  0.83617475    -0.30800
H2075       H  0.60180974  0.62624651  0.80821808     0.13400
H2076       H  0.62481752  0.67281267  0.86278919     0.14000
C2077       C  0.43460280  0.69321888  0.93059765    -0.15600
C2078       C  0.43654016  0.66371891  0.92466135    -0.30800
H2079       H  0.45325705  0.70763752  0.92443340     0.13400
H2080       H  0.41870152  0.64912401  0.93368742     0.14000
C2081       C  0.51498641  0.59733025  0.52799827    -0.15600
C2082       C  0.51145098  0.62291379  0.54661426    -0.30800
H2083       H  0.50757953  0.57636844  0.54054264     0.13400
H2084       H  0.51631200  0.64397293  0.53224379     0.14000
C2085       C  0.49585888  0.61082408  0.78830228    -0.15600
C2086       C  0.47459847  0.59385367  0.77394707    -0.30800
H2087       H  0.51024568  0.62347749  0.76946523     0.13400
H2088       H  0.45860473  0.58281122  0.79212181     0.14000
C2089       C  0.45506416  0.36317224  0.83480303    -0.15600
C2090       C  0.43563449  0.34486882  0.85182396    -0.30800
H2091       H  0.45267883  0.36781756  0.80469082     0.13400
H2092       H  0.43538341  0.34222296  0.88236430     0.14000
C2093       C  0.52045716  0.41174621  0.72647146    -0.15600
C2094       C  0.51861231  0.43642722  0.74731009    -0.30800
H2095       H  0.52932845  0.39130886  0.73905125     0.13400
H2096       H  0.50709649  0.45612200  0.73667809     0.14000
C2097       C  0.50415564  0.41914213  0.98198804    -0.15600
C2098       C  0.48921271  0.43448827  0.49792700    -0.30800
H2099       H  0.51495022  0.40379077  0.00175203     0.13400
H2100       H  0.47293798  0.44390406  0.47862788     0.14000
C2101       C  0.55713169  0.51011805  0.87360785    -0.15600
C2102       C  0.55149840  0.52278590  0.90687528    -0.30800
H2103       H  0.56177909  0.52389375  0.84881266     0.13400
H2104       H  0.54812374  0.50898295  0.93199916     0.14000
C2105       C  0.60152791  0.22777266  0.55407840    -0.15600
C2106       C  0.61101852  0.19942463  0.55477235    -0.30800
H2107       H  0.58033638  0.23334217  0.56636655     0.13400
H2108       H  0.63101352  0.19338532  0.53987598     0.14000
C2109       C  0.63819353  0.37667265  0.93696658    -0.15600
C2110       C  0.61697801  0.39723376  0.93918984    -0.30800
H2111       H  0.64251876  0.36706965  0.90947489     0.13400
H2112       H  0.61025602  0.40501545  0.96680227     0.14000
C2113       C  0.57980094  0.36271030  0.58699158    -0.15600
C2114       C  0.55207828  0.35192607  0.58833954    -0.30800
H2115       H  0.58470175  0.38434870  0.59899328     0.13400
H2116       H  0.54707654  0.33027909  0.57643184     0.14000
C2117       C  0.77340489  0.30082222  0.00350093    -0.15600
C2118       C  0.75395249  0.32433350  0.51136080    -0.30800
H2119       H  0.76435893  0.27852686  0.00736626     0.13400
H2120       H  0.76457300  0.34572138  0.51575621     0.14000
C2121       C  0.93978084  0.22668518  0.96509370    -0.15600
C2122       C  0.93771832  0.19705271  0.97120680    -0.30800
H2123       H  0.95663508  0.23540708  0.94619456     0.13400
H2124       H  0.92196058  0.18850259  0.99173962     0.14000
C2125       C  0.89058098  0.37851170  0.55137111    -0.15600
C2126       C  0.88910507  0.37997124  0.58902589    -0.30800
H2127       H  0.90614575  0.39271416  0.53628477     0.13400
H2128       H  0.87328368  0.36616643  0.60421240     0.14000
C2129       C  0.93886254  0.35556987  0.92358391    -0.15600
C2130       C  0.96754399  0.34858201  0.92786257    -0.30800
H2131       H  0.93206349  0.37305247  0.90377833     0.13400
H2132       H  0.97406821  0.32995081  0.94609306     0.14000
C2133       C  0.68611501  0.29148684  0.64286503    -0.15600
C2134       C  0.66381702  0.29424119  0.66715136    -0.30800
H2135       H  0.70547970  0.27846710  0.65063845     0.13400
H2136       H  0.64331434  0.30433775  0.65730018     0.14000
C2137       C  0.68757850  0.27001684  0.89762224    -0.15600
C2138       C  0.66574258  0.25881100  0.91904902    -0.30800
H2139       H  0.70254520  0.28666097  0.90867523     0.13400
H2140       H  0.64894906  0.24490175  0.90629160     0.14000
C2141       C  0.63842042  0.15621836  0.68641166    -0.15600
C2142       C  0.63652689  0.16001081  0.72369929    -0.30800
H2143       H  0.65509412  0.16824090  0.67035051     0.13400
H2144       H  0.62039118  0.14724531  0.73978346     0.14000
C2145       C  0.59269872  0.19532932  0.84949481    -0.15600
C2146       C  0.57560083  0.17468514  0.83336232    -0.30800
H2147       H  0.59056095  0.20039278  0.87925889     0.13400
H2148       H  0.58032915  0.16809551  0.80454529     0.14000
C2149       C  0.58105448  0.32930028  0.81148700    -0.15600
C2150       C  0.60827627  0.32985820  0.79746482    -0.30800
H2151       H  0.56874667  0.30853224  0.81284734     0.13400
H2152       H  0.62054438  0.35068216  0.79684281     0.14000
C2153       C  0.84485772  0.24276999  0.61966595    -0.15600
C2154       C  0.86880481  0.25296326  0.60163164    -0.30800
H2155       H  0.82546567  0.23581661  0.60409221     0.13400
H2156       H  0.88839547  0.25785987  0.61822024     0.14000
C2157       C  0.84936431  0.27803541  0.86894972    -0.15600
C2158       C  0.87167974  0.26355554  0.85253796    -0.30800
H2159       H  0.83199624  0.28809628  0.85182232     0.13400
H2160       H  0.88997735  0.25582900  0.87006428     0.14000
C2161       C  0.77705370  0.20983554  0.75953800    -0.15600
C2162       C  0.76035902  0.23425594  0.76373291    -0.30800
H2163       H  0.76830885  0.18770936  0.76550190     0.13400
H2164       H  0.77027568  0.25603298  0.75853294     0.14000
C2165       C  0.89975642  0.14282616  0.80683965    -0.15600
C2166       C  0.90199377  0.14740167  0.84392884    -0.30800
H2167       H  0.91330810  0.12589801  0.79370423     0.13400
H2168       H  0.88784113  0.16396230  0.85684758     0.14000
C2169       C  0.94108990  0.17289328  0.66942321    -0.15600
C2170       C  0.96799368  0.18455952  0.66570374    -0.30800
H2171       H  0.93588468  0.15132934  0.65745352     0.13400
H2172       H  0.97263204  0.20700026  0.67533974     0.14000
C2173       C  0.93253581  0.30641009  0.71201387    -0.15600
C2174       C  0.92619991  0.33519979  0.71871998    -0.30800
H2175       H  0.95117384  0.30083108  0.69423020     0.13400
H2176       H  0.90827625  0.34064618  0.73772975     0.14000
loop_ 
_geom_bond_atom_site_label_1 
_geom_bond_atom_site_label_2 
_geom_bond_distance 
_geom_bond_site_symmetry_2 
_ccdc_geom_bond_type 
O1           C16   1.258       .  A
O1           Al9   1.904       .  S
C2           O12   1.265       .  A
C2            O3   1.260       .  A
C2         C1070   1.469       .  S
O3           Al5   1.902       .  S
O4            C6   1.255       .  A
O4           Al5   1.867       .  S
Al5          O13   1.889       .  S
Al5          O15   1.908       .  S
Al5          O14   1.766       .  S
C6           O19   1.268       .  A
C6         C1077   1.458       .  S
O7           C17   1.260       .  A
O7           Al9   1.904       .  S
O8           C21   1.263       .  A
O8          Al18   1.889       .  S
Al9          O22   1.933       .  S
Al9          O19   1.946       .  S
Al9          O14   1.786       .  S
O10          C17   1.268       .  A
O10         Al18   1.911       .  S
O11          C20   1.269       .  A
O11         Al18   1.937       .  S
O12         Al18   1.920       .  S
O13          C20   1.258       .  A
O14         Al18   1.766       .  S
O15          C16   1.262       .  A
C16        C1081   1.468       .  S
C17        C1073   1.482       .  S
C20        C1085   1.472       .  S
C21          O22   1.265       .  A
C21        C1065   1.473       .  S
O23          C38   1.263       .  A
O23         Al31   1.914       .  S
C24          O34   1.269       .  A
C24          O25   1.269       .  A
C24        C1046   1.464       .  S
O25         Al27   1.916       .  S
O26          C28   1.258       .  A
O26         Al27   1.883       .  S
Al27         O35   1.915       .  S
Al27         O37   1.907       .  S
Al27         O36   1.765       .  S
C28          O41   1.258       .  A
C28        C1054   1.463       .  S
O29          C39   1.268       .  A
O29         Al31   1.942       .  S
O30          C43   1.268       .  A
O30         Al40   1.897       .  S
Al31         O44   1.920       .  S
Al31         O41   1.915       .  S
Al31         O36   1.790       .  S
O32          C39   1.254       .  A
O32         Al40   1.876       .  S
O33          C42   1.248       .  A
O33         Al40   1.887       .  S
O34         Al40   1.905       .  S
O35          C42   1.260       .  A
O36         Al40   1.781       .  S
O37          C38   1.265       .  A
C38        C1057   1.477       .  S
C39        C1074   1.466       .  S
C42        C1062   1.468       .  S
C43          O44   1.264       .  A
C43        C1049   1.461       .  S
O45          C60   1.263       .  A
O45         Al53   1.907       .  S
C46          O56   1.264       .  A
C46          O47   1.264       .  A
C46        C1069   1.474       .  S
O47         Al49   1.894       .  S
O48          C50   1.267       .  A
O48         Al49   1.943       .  S
Al49         O57   1.906       .  S
Al49       O1147   1.922       .  S
Al49         O58   1.774       .  S
C50          O63   1.257       .  A
C50        C1033   1.484       .  S
O51          C61   1.259       .  A
O51       Al1141   1.880       .  S
O52          C65   1.261       .  A
O52       Al1150   1.927   1_554  S
Al53         O66   1.897       .  S
Al53       O1139   1.892   1_554  S
Al53       O1151   1.903   1_554  S
Al53       O1146   1.775   1_554  S
O54          C61   1.262       .  A
O54         Al62   1.906       .  S
O55          C64   1.265       .  A
O55         Al62   1.920       .  S
O56         Al62   1.933       .  S
O57          C64   1.263       .  A
O58         Al62   1.791       .  S
O58       Al1141   1.771       .  S
O59          C60   1.264       .  A
O59       Al1137   1.908   1_554  S
C60        C1066   1.470       .  S
C61        C1041   1.463       .  S
Al62       O1140   1.936       .  S
O63       Al1141   1.898       .  S
C64        C1029   1.474       .  S
C65          O66   1.260       .  A
C65        C1037   1.476       .  S
O67          C82   1.254       .  A
O67       Al1163   1.868       .  S
C68          O78   1.274       .  A
C68          O69   1.265       .  A
C68        C1045   1.476       .  S
O69         Al71   1.870       .  S
O70          C72   1.264       .  A
O70         Al71   1.939       .  S
Al71         O79   1.902       .  S
Al71       O1169   1.893   1_554  S
Al71         O80   1.781       .  S
C72          O85   1.256       .  A
C72        C1017   1.467       .  S
O73          C83   1.261       .  A
O73         Al75   1.921       .  S
O74        C1175   1.269       .  A
O74         Al84   1.940   1_556  S
Al75         O85   1.887       .  S
Al75       O1155   1.938   1_554  S
Al75       O1176   1.859   1_554  S
Al75         O80   1.777       .  S
O76          C83   1.259       .  A
O76         Al84   1.908       .  S
O77          C86   1.257       .  A
O77         Al84   1.917       .  S
O78         Al84   1.951       .  S
O79          C86   1.257       .  A
O80         Al84   1.784       .  S
O81          C82   1.265       .  A
O81       Al1159   1.912       .  S
C82        C1050   1.463       .  S
C83        C1025   1.489       .  S
C86        C1030   1.487       .  S
C87          O88   1.265       .  A
C87        O1162   1.264       .  A
C87        C1021   1.469       .  S
O88       Al1163   1.917       .  S
O89         C104   1.254       .  A
O89         Al97   1.856       .  S
C90         O100   1.263       .  A
C90          O91   1.269       .  A
C90        C1006   1.470       .  S
O91         Al93   1.939       .  S
O92          C94   1.259       .  A
O92         Al93   1.893       .  S
Al93        O101   1.888       .  S
Al93        O103   1.924       .  S
Al93        O102   1.774       .  S
C94         O107   1.258       .  A
C94        C1001   1.466       .  S
O95         C105   1.252       .  A
O95         Al97   1.867       .  S
O96         C109   1.262       .  A
O96        Al106   1.911       .  S
Al97        O110   1.923       .  S
Al97        O107   1.907       .  S
Al97        O102   1.775       .  S
O98         C105   1.272       .  A
O98        Al106   1.951       .  S
O99         C108   1.261       .  A
O99        Al106   1.933       .  S
O100       Al106   1.876       .  S
O101        C108   1.256       .  A
O102       Al106   1.778       .  S
O103        C104   1.266       .  A
C104       C1009   1.455       .  S
C105       C1061   1.468       .  S
C108       C1013   1.469       .  S
C109        O110   1.264       .  A
C109       C1022   1.468       .  S
O111        C126   1.258       .  A
O111       Al119   1.870       .  S
C112        O122   1.265       .  A
C112        O113   1.264       .  A
C112       C2081   1.471       .  S
O113       Al115   1.926       .  S
O114        C116   1.258       .  A
O114       Al115   1.886       .  S
Al115       O123   1.888       .  S
Al115       O125   1.916       .  S
Al115       O124   1.785       .  S
C116        O129   1.261       .  A
C116        C990   1.463       .  S
O117        C127   1.260       .  A
O117       Al119   1.909       .  S
O118        C131   1.268       .  A
O118       Al128   1.927       .  S
Al119       O132   1.902       .  S
Al119       O129   1.899       .  S
Al119       O124   1.772       .  S
O120        C127   1.265       .  A
O120       Al128   1.919       .  S
O121        C130   1.263       .  A
O121       Al128   1.936       .  S
O122       Al128   1.904       .  S
O123        C130   1.257       .  A
O124       Al128   1.780       .  S
O125        C126   1.258       .  A
C126        C997   1.462       .  S
C127        C981   1.484       .  S
C130       C1014   1.466       .  S
C131        O132   1.263       .  A
C131        C985   1.469       .  S
O133        C148   1.265       .  A
O133       Al141   1.925       .  S
C134        O144   1.262       .  A
C134        O135   1.262       .  A
C134       C1005   1.460       .  S
O135       Al137   1.913       .  S
O136        C138   1.264       .  A
O136       Al137   1.905       .  S
Al137       O145   1.913       .  S
Al137       O147   1.889       .  S
Al137       O146   1.773       .  S
C138        O151   1.260       .  A
C138        C973   1.467       .  S
O139        C149   1.267       .  A
O139       Al141   1.942       .  S
O140        C153   1.264       .  A
O140       Al150   1.876       .  S
Al141       O154   1.922       .  S
Al141       O151   1.913       .  S
Al141       O146   1.798       .  S
O142        C149   1.259       .  A
O142       Al150   1.895       .  S
O143        C152   1.263       .  A
O143       Al150   1.939       .  S
O144       Al150   1.902       .  S
O145        C152   1.259       .  A
O146       Al150   1.778       .  S
O147        C148   1.259       .  A
C148        C970   1.481       .  S
C149        C977   1.481       .  S
C152       C1026   1.489       .  S
C153        O154   1.262       .  A
C153       C1010   1.465   1_554  S
O155        C170   1.260       .  A
O155       Al163   1.910       .  S
C156        O166   1.258       .  A
C156        O157   1.266       .  A
C156        C994   1.466       .  S
O157       Al159   1.935       .  S
O158        C160   1.262       .  A
O158       Al159   1.881       .  S
Al159       O167   1.895       .  S
Al159       O169   1.919       .  S
Al159       O168   1.779       .  S
C160        O173   1.263       .  A
C160        C966   1.466       .  S
O161        C171   1.260       .  A
O161       Al163   1.929       .  S
O162        C175   1.256       .  A
O162       Al172   1.852       .  S
Al163       O176   1.931       .  S
Al163       O173   1.921       .  S
Al163       O168   1.793       .  S
O164        C171   1.259       .  A
O164       Al172   1.902       .  S
O165        C174   1.264       .  A
O165       Al172   1.931       .  S
O166       Al172   1.881       .  S
O167        C174   1.258       .  A
O168       Al172   1.784       .  S
O169        C170   1.261       .  A
C170        C961   1.482       .  S
C171        C978   1.496       .  S
C174        C958   1.477       .  S
C175        O176   1.269       .  A
C175        C998   1.456       .  S
O177        C192   1.269       .  A
O177       Al185   1.933       .  S
C178        O188   1.268       .  A
C178        O179   1.258       .  A
C178        C949   1.480       .  S
O179       Al181   1.889       .  S
O180        C182   1.266       .  A
O180       Al181   1.913       .  S
Al181      O1277   1.929       .  S
Al181      O1279   1.905   1_554  S
Al181      O1278   1.778   1_554  S
C182        O195   1.263       .  A
C182        C965   1.458       .  S
O183        C193   1.261       .  A
O183       Al185   1.931       .  S
O184        C197   1.267       .  A
O184       Al194   1.913       .  S
Al185       O198   1.879       .  S
Al185      O1283   1.915       .  S
Al185       O190   1.800       .  S
O186        C193   1.248       .  A
O186       Al194   1.854       .  S
O187        C196   1.248       .  A
O187       Al194   1.875       .  S
O188      Al1282   1.940   1_554  S
O189        C196   1.249       .  A
O189      Al1269   1.895       .  S
O190       Al194   1.780       .  S
O190      Al1269   1.784       .  S
O191        C192   1.260       .  A
O191      Al1269   1.879       .  S
C192        C989   1.453       .  S
C193       C2041   1.470       .  S
Al194      O1276   1.931       .  S
O195      Al1273   1.901   1_554  S
C196        C941   1.465       .  S
C197        O198   1.257       .  A
C197        C946   1.469       .  S
O199        C214   1.258       .  A
O199       Al207   1.896       .  S
C200        O210   1.263       .  A
C200        O201   1.266       .  A
C200        C934   1.487       .  S
O201      Al1291   1.936       .  S
O202        C204   1.263       .  A
O202      Al1291   1.896       .  S
Al203       O211   1.921   1_556  S
Al203       O213   1.918   1_556  S
Al203      O1289   1.937       .  S
Al203      O1290   1.874       .  S
Al203       O212   1.774   1_556  S
C204       O1305   1.264       .  A
C204        C926   1.465       .  S
O205        C215   1.259       .  A
O205       Al207   1.934       .  S
O206        C219   1.266       .  A
O206       Al216   1.880       .  S
Al207       O220   1.941       .  S
Al207       O217   1.916       .  S
Al207       O212   1.786       .  S
O208        C215   1.249       .  A
O208       Al216   1.885       .  S
O209        C218   1.249       .  A
O209       Al216   1.893       .  S
O210      Al1304   1.917       .  S
O211        C218   1.258       .  A
O212       Al216   1.788       .  S
O213        C214   1.262       .  A
C214        C930   1.481       .  S
C215        C954   1.469       .  S
Al216      O1298   1.896   1_554  S
O217       C1292   1.261   1_554  A
C218        C921   1.467       .  S
C219        O220   1.275       .  A
C219        C937   1.468       .  S
O221        C236   1.256       .  A
O221       Al229   1.872       .  S
C222        O232   1.257       .  A
C222        O223   1.266       .  A
C222        C950   1.479       .  S
O223       Al225   1.932       .  S
O224        C226   1.252       .  A
O224       Al225   1.874       .  S
Al225       O233   1.875       .  S
Al225       O235   1.929       .  S
Al225       O234   1.798       .  S
C226        O239   1.264       .  A
C226        C962   1.486       .  S
O227        C237   1.253       .  A
O227       Al229   1.871       .  S
O228        C241   1.255       .  A
O228       Al238   1.864       .  S
Al229       O242   1.970       .  S
Al229       O239   1.943       .  S
Al229       O234   1.804       .  S
O230        C237   1.268       .  A
O230       Al238   1.948       .  S
O231        C240   1.264       .  A
O231       Al238   1.948       .  S
O232       Al238   1.884       .  S
O233        C240   1.254       .  A
O234       Al238   1.793       .  S
O235        C236   1.266       .  A
C236        C945   1.472       .  S
C237        C913   1.477       .  S
C240        C917   1.496       .  S
C241        O242   1.265       .  A
C241        C909   1.485       .  S
O243        C258   1.261       .  A
O243       Al251   1.879       .  S
C244        O254   1.266       .  A
C244        O245   1.263       .  A
C244        C933   1.481       .  S
O245       Al247   1.924       .  S
O246        C248   1.253       .  A
O246       Al247   1.875       .  S
Al247       O255   1.871       .  S
Al247       O257   1.934       .  S
Al247       O256   1.775       .  S
C248        O261   1.260       .  A
C248        C905   1.455       .  S
O249        C259   1.266       .  A
O249       Al251   1.909       .  S
O250        C263   1.269       .  A
O250       Al260   1.936       .  S
Al251       O264   1.907       .  S
Al251       O261   1.922       .  S
Al251       O256   1.779       .  S
O252        C259   1.271       .  A
O252       Al260   1.949       .  S
O253        C262   1.270       .  A
O253       Al260   1.972       .  S
O254       Al260   1.923       .  S
O255        C262   1.254       .  A
O256       Al260   1.773       .  S
O257        C258   1.265       .  A
C258        C938   1.471       .  S
C259        C901   1.486       .  S
C262        C918   1.483       .  S
C263        O264   1.261       .  A
C263        C897   1.474       .  S
O265        C280   1.264       .  A
O265       Al273   1.921       .  S
C266        O276   1.261       .  A
C266        O267   1.266       .  A
C266        C881   1.470   1_455  S
O267       Al269   1.934       .  S
O268        C270   1.258       .  A
O268       Al269   1.875       .  S
Al269       O277   1.888       .  S
Al269       O279   1.924       .  S
Al269       O278   1.769       .  S
C270        O283   1.266       .  A
C270        C893   1.467       .  S
O271        C281   1.268       .  A
O271       Al273   1.932       .  S
O272        C285   1.265       .  A
O272       Al282   1.887       .  S
Al273       O286   1.930       .  S
Al273       O283   1.943       .  S
Al273       O278   1.786       .  S
O274        C281   1.257       .  A
O274       Al282   1.879       .  S
O275        C284   1.261       .  A
O275       Al282   1.913   1_655  S
O276       Al282   1.897       .  S
O277        C284   1.257   1_455  A
O278       Al282   1.772       .  S
O279        C280   1.266       .  A
C280        C890   1.482       .  S
C281        C886   1.465       .  S
C284       C1042   1.459       .  S
C285        O286   1.265       .  A
C285       C1965   1.472       .  S
O287        C302   1.261       .  A
O287       Al295   1.908       .  S
C288        O298   1.264       .  A
C288        O289   1.260       .  A
C288        C873   1.466   1_455  S
O289       Al291   1.903       .  S
O290        C292   1.263       .  A
O290       Al291   1.894       .  S
Al291       O299   1.889       .  S
Al291       O301   1.898       .  S
Al291       O300   1.766       .  S
C292        O305   1.264       .  A
C292        C925   1.465       .  S
O293        C303   1.261       .  A
O293       Al295   1.906       .  S
O294        C307   1.262       .  A
O294       Al304   1.892       .  S
Al295       O308   1.930       .  S
Al295       O305   1.931       .  S
Al295       O300   1.788       .  S
O296        C303   1.268       .  A
O296       Al304   1.914       .  S
O297        C306   1.266       .  A
O297       Al304   1.938   1_655  S
O298       Al304   1.918       .  S
O299        C306   1.259   1_455  A
O300       Al304   1.770       .  S
O301        C302   1.261       .  A
C302        C906   1.465       .  S
C303        C885   1.482       .  S
C306        C866   1.468       .  S
C307        O308   1.262       .  A
C307        C870   1.472       .  S
O309        C324   1.259       .  A
O309       Al317   1.888       .  S
C310        O320   1.261       .  A
C310        O311   1.266       .  A
C310        C882   1.470       .  S
O311       Al313   1.926       .  S
O312        C314   1.258       .  A
O312       Al313   1.911   1_455  S
Al313       O321   1.896       .  S
Al313       O323   1.918   1_655  S
Al313       O322   1.801       .  S
C314        O327   1.253       .  A
C314        C861   1.478       .  S
O315        C325   1.259       .  A
O315       Al317   1.899       .  S
O316        C329   1.266       .  A
O316       Al326   1.921       .  S
Al317       O330   1.891       .  S
Al317       O327   1.895   1_655  S
Al317       O322   1.791       .  S
O318        C325   1.257       .  A
O318       Al326   1.905       .  S
O319        C328   1.257       .  A
O319       Al326   1.922       .  S
O320       Al326   1.887       .  S
O321        C328   1.257       .  A
O322       Al326   1.801       .  S
O323        C324   1.264   1_455  A
C324        C878   1.476   1_655  S
C325       C1086   1.471       .  S
C328        C857   1.494       .  S
C329        O330   1.259       .  A
C329       C1038   1.466       .  S
O331        C346   1.263       .  A
O331       Al339   1.908       .  S
C332        O342   1.268       .  A
C332        O333   1.267   1_655  A
C332       C1962   1.480   1_554  S
O333       Al335   1.898       .  S
O334        C336   1.260       .  A
O334       Al335   1.922       .  S
Al335       O343   1.896   1_455  S
Al335       O345   1.913       .  S
Al335       O344   1.781   1_455  S
C336        O349   1.258   1_455  A
C336        C929   1.483       .  S
O337        C347   1.259       .  A
O337       Al339   1.887       .  S
O338        C351   1.265       .  A
O338       Al348   1.936       .  S
Al339       O352   1.894       .  S
Al339       O349   1.913       .  S
Al339       O344   1.774       .  S
O340        C347   1.265       .  A
O340       Al348   1.922       .  S
O341        C350   1.269       .  A
O341       Al348   1.949       .  S
O342       Al348   1.941       .  S
O343        C350   1.258       .  A
O344       Al348   1.791       .  S
O345        C346   1.266   1_455  A
C346        C869   1.471   1_655  S
C347        C849   1.478       .  S
C350        C858   1.483       .  S
C351        O352   1.260       .  A
C351        C853   1.476       .  S
O353        C368   1.262       .  A
O353       Al361   1.906       .  S
C354        O364   1.265       .  A
C354        O355   1.264       .  A
C354        C841   1.472       .  S
O355       Al357   1.920       .  S
O356        C358   1.263       .  A
O356       Al357   1.896       .  S
Al357       O365   1.912       .  S
Al357       O367   1.898       .  S
Al357       O366   1.769       .  S
C358        O371   1.261       .  A
C358       C1053   1.466       .  S
O359        C369   1.263       .  A
O359       Al361   1.925       .  S
O360        C373   1.265       .  A
O360       Al370   1.891       .  S
Al361       O374   1.929       .  S
Al361       O371   1.915       .  S
Al361       O366   1.797       .  S
O362        C369   1.259       .  A
O362       Al370   1.895       .  S
O363        C372   1.261       .  A
O363       Al370   1.927       .  S
O364       Al370   1.918       .  S
O365        C372   1.260       .  A
O366       Al370   1.774       .  S
O367        C368   1.262       .  A
C368       C1018   1.473       .  S
C369        C845   1.470       .  S
C372        C834   1.480       .  S
C373        O374   1.264       .  A
C373       C1926   1.474   1_554  S
O375        C390   1.261       .  A
O375       Al383   1.897       .  S
C376        O386   1.266       .  A
C376        O377   1.273       .  A
C376        C825   1.468       .  S
O377       Al379   1.931       .  S
O378        C380   1.257       .  A
O378       Al379   1.882       .  S
Al379       O387   1.912       .  S
Al379       O389   1.918       .  S
Al379       O388   1.769       .  S
C380        O393   1.264       .  A
C380        C821   1.467       .  S
O381        C391   1.259       .  A
O381       Al383   1.938       .  S
O382        C395   1.267       .  A
O382       Al392   1.872       .  S
Al383       O396   1.960       .  S
Al383       O393   1.919       .  S
Al383       O388   1.783       .  S
O384        C391   1.254       .  A
O384       Al392   1.892       .  S
O385        C394   1.257       .  A
O385       Al392   1.924       .  S
O386       Al392   1.907       .  S
O387        C394   1.259       .  A
O388       Al392   1.779       .  S
O389        C390   1.262       .  A
C390        C817   1.482       .  S
C391        C846   1.490   1_565  S
C394        C914   1.479       .  S
C395        O396   1.277       .  A
C395        C829   1.477       .  S
O397        C412   1.255       .  A
O397       Al405   1.860       .  S
C398        O408   1.261       .  A
C398        O399   1.264       .  A
C398        C842   1.479       .  S
O399       Al401   1.934       .  S
O400        C402   1.253       .  A
O400       Al401   1.876       .  S
Al401       O409   1.876       .  S
Al401       O411   1.946       .  S
Al401       O410   1.779       .  S
C402        O415   1.263       .  A
C402       C1058   1.469       .  S
O403        C413   1.257       .  A
O403       Al405   1.883       .  S
O404        C417   1.262       .  A
O404       Al414   1.916       .  S
Al405       O418   1.927       .  S
Al405       O415   1.945       .  S
Al405       O410   1.780       .  S
O406        C413   1.271       .  A
O406       Al414   1.938       .  S
O407        C416   1.267       .  A
O407       Al414   1.942       .  S
O408       Al414   1.892       .  S
O409        C416   1.259       .  A
O410       Al414   1.777       .  S
O411        C412   1.269       .  A
C412        C837   1.465       .  S
C413        C805   1.473       .  S
C416        C814   1.480       .  S
C417        O418   1.266       .  A
C417        C810   1.472       .  S
O419        C434   1.257       .  A
O419       Al427   1.873       .  S
C420        O430   1.263       .  A
C420        O421   1.268       .  A
C420       C1914   1.486       .  S
O421       Al423   1.937       .  S
O422        C424   1.252       .  A
O422       Al423   1.857       .  S
Al423       O431   1.871       .  S
Al423       O433   1.931       .  S
Al423       O432   1.788       .  S
C424        O437   1.263       .  A
C424        C801   1.474       .  S
O425        C435   1.257       .  A
O425       Al427   1.883       .  S
O426        C439   1.263       .  A
O426       Al436   1.878       .  S
Al427       O440   1.966       .  S
Al427       O437   1.935       .  S
Al427       O432   1.793       .  S
O428        C435   1.260       .  A
O428       Al436   1.919       .  S
O429        C438   1.262       .  A
O429       Al436   1.937       .  S
O430       Al436   1.902       .  S
O431        C438   1.252       .  A
O432       Al436   1.784       .  S
O433        C434   1.265       .  A
C434        C830   1.470       .  S
C435        C942   1.465       .  S
C438        C813   1.472   1_565  S
C439        O440   1.268       .  A
C439        C910   1.479       .  S
O441        C456   1.263       .  A
O441       Al449   1.923       .  S
C442        O452   1.270       .  A
C442        O443   1.265       .  A
C442        C785   1.471       .  S
O443      Al1533   1.907       .  S
O444        C446   1.256       .  A
O444      Al1533   1.869       .  S
Al445       O453   1.903       .  S
Al445       O455   1.914       .  S
Al445      O1531   1.917   1_554  S
Al445      O1532   1.879   1_554  S
Al445       O454   1.768       .  S
C446       O1547   1.257       .  A
C446        C793   1.457       .  S
O447        C457   1.264       .  A
O447       Al449   1.925       .  S
O448        C461   1.263       .  A
O448       Al458   1.895       .  S
Al449       O462   1.920       .  S
Al449       O459   1.923       .  S
Al449       O454   1.795       .  S
O450        C457   1.264       .  A
O450       Al458   1.897       .  S
O451        C460   1.261       .  A
O451       Al458   1.923       .  S
O452      Al1546   1.917       .  S
O453        C460   1.260       .  A
O454       Al458   1.778       .  S
O455        C456   1.262       .  A
C456        C797   1.478       .  S
C457        C790   1.489       .  S
Al458      O1540   1.916   1_554  S
O459       C1534   1.261   1_554  A
C460        C850   1.474       .  S
C461        O462   1.261       .  A
C461        C781   1.466       .  S
O463        C478   1.256       .  A
O463       Al471   1.886       .  S
C464        O474   1.264       .  A
C464        O465   1.263       .  A
C464        C773   1.470       .  S
O465       Al467   1.921       .  S
O466        C468   1.259       .  A
O466       Al467   1.879       .  S
Al467      O1563   1.904   1_554  S
Al467      O1565   1.933   1_554  S
Al467      O1564   1.779   1_554  S
C468        O481   1.268       .  A
C468        C822   1.463       .  S
O469        C479   1.256       .  A
O469       Al471   1.921       .  S
O470        C483   1.270       .  A
O470       Al480   1.901       .  S
Al471       O484   1.945       .  S
Al471      O1569   1.924       .  S
Al471       O476   1.795       .  S
O472        C479   1.253       .  A
O472       Al480   1.893       .  S
O473        C482   1.252       .  A
O473       Al480   1.899       .  S
O474      Al1568   1.920   1_554  S
O475        C482   1.257       .  A
O475      Al1555   1.923       .  S
O476       Al480   1.785       .  S
O476      Al1555   1.781       .  S
O477        C478   1.258       .  A
O477      Al1555   1.899       .  S
C478        C802   1.468       .  S
C479        C789   1.475       .  S
Al480      O1562   1.917       .  S
O481      Al1559   1.935   1_554  S
C482        C982   1.475       .  S
C483        O484   1.273       .  A
C483        C777   1.479       .  S
O485        C500   1.262       .  A
O485       Al493   1.903       .  S
C486        O496   1.268       .  A
C486        O487   1.267       .  A
C486        C786   1.477       .  S
O487       Al489   1.897       .  S
O488        C490   1.259       .  A
O488       Al489   1.919       .  S
Al489       O497   1.884       .  S
Al489       O499   1.908       .  S
Al489       O498   1.782       .  S
C490        O503   1.259       .  A
C490        C769   1.477       .  S
O491        C501   1.258       .  A
O491       Al493   1.882       .  S
O492        C505   1.265       .  A
O492       Al502   1.935       .  S
Al493       O506   1.893       .  S
Al493       O503   1.910       .  S
Al493       O498   1.774       .  S
O494        C501   1.263       .  A
O494       Al502   1.916       .  S
O495        C504   1.266       .  A
O495       Al502   1.937       .  S
O496       Al502   1.936       .  S
O497        C504   1.256       .  A
O498       Al502   1.793       .  S
O499        C500   1.265       .  A
C500        C782   1.466       .  S
C501        C865   1.474       .  S
C504        C765   1.474       .  S
C505        O506   1.260       .  A
C505        C854   1.475       .  S
O507        C522   1.258       .  A
O507       Al515   1.887       .  S
C508        O518   1.269       .  A
C508        O509   1.272       .  A
C508        C774   1.478       .  S
O509       Al511   1.941       .  S
O510        C512   1.252       .  A
O510       Al511   1.882       .  S
Al511       O519   1.879       .  S
Al511       O521   1.924       .  S
Al511       O520   1.786       .  S
C512        O525   1.259       .  A
C512        C818   1.479       .  S
O513        C523   1.257       .  A
O513       Al515   1.898       .  S
O514        C527   1.269       .  A
O514       Al524   1.921       .  S
Al515       O528   1.923       .  S
Al515       O525   1.921       .  S
Al515       O520   1.786       .  S
O516        C523   1.259       .  A
O516       Al524   1.924       .  S
O517        C526   1.254       .  A
O517       Al524   1.925       .  S
O518       Al524   1.891       .  S
O519        C526   1.252       .  A
O520       Al524   1.795       .  S
O521        C522   1.265       .  A
C522        C778   1.479       .  S
C523        C957   1.477       .  S
C526        C766   1.486       .  S
C527        O528   1.271       .  A
C527        C986   1.478       .  S
O529        C544   1.257       .  A
O529       Al537   1.890       .  S
C530        O540   1.273       .  A
C530        O531   1.269       .  A
C530        C758   1.468       .  S
O531       Al533   1.917       .  S
O532        C534   1.256       .  A
O532       Al533   1.871       .  S
Al533       O541   1.917       .  S
Al533       O543   1.898       .  S
Al533       O542   1.770       .  S
C534        O547   1.262       .  A
C534        C974   1.467       .  S
O535        C545   1.260       .  A
O535       Al537   1.934       .  S
O536        C549   1.269       .  A
O536       Al546   1.891       .  S
Al537       O550   1.941       .  S
Al537       O547   1.922       .  S
Al537       O542   1.794       .  S
O538        C545   1.251       .  A
O538       Al546   1.878       .  S
O539        C548   1.249       .  A
O539       Al546   1.889       .  S
O540       Al546   1.913       .  S
O541        C548   1.258       .  A
O542       Al546   1.782       .  S
O543        C544   1.261       .  A
C544       C1002   1.470       .  S
C545        C761   1.468       .  S
C548        C806   1.468       .  S
C549        O550   1.272       .  A
C549        C753   1.471       .  S
O551        C566   1.261       .  A
O551       Al559   1.905       .  S
C552        O562   1.265       .  A
C552        O553   1.265       .  A
C552        C745   1.475       .  S
O553       Al555   1.921       .  S
O554        C556   1.264       .  A
O554       Al555   1.906       .  S
Al555       O563   1.935       .  S
Al555       O565   1.912       .  S
Al555       O564   1.782       .  S
C556        O569   1.259       .  A
C556        C894   1.465       .  S
O557        C567   1.259       .  A
O557       Al559   1.926       .  S
O558        C571   1.265       .  A
O558       Al568   1.877       .  S
Al559       O572   1.931       .  S
Al559       O569   1.903       .  S
Al559       O564   1.802       .  S
O560        C567   1.256       .  A
O560       Al568   1.880       .  S
O561        C570   1.258       .  A
O561       Al568   1.913       .  S
O562       Al568   1.917       .  S
O563        C570   1.265       .  A
O564       Al568   1.781       .  S
O565        C566   1.263       .  A
C566        C862   1.483       .  S
C567        C762   1.486       .  S
C570        C741   1.488       .  S
C571        O572   1.266       .  A
C571        C749   1.477       .  S
O573        C588   1.257       .  A
O573      Al1669   1.885       .  S
C574        O584   1.272       .  A
C574        O575   1.271       .  A
C574        C757   1.477       .  S
O575       Al577   1.897       .  S
O576        C578   1.257       .  A
O576       Al577   1.927       .  S
Al577       O585   1.887       .  S
Al577      O1675   1.905   1_554  S
Al577       O586   1.785       .  S
C578        O591   1.256       .  A
C578        C969   1.477       .  S
O579        C589   1.259       .  A
O579       Al581   1.894       .  S
O580       C1681   1.263   1_554  A
O580       Al590   1.928       .  S
Al581       O591   1.904       .  S
Al581      O1661   1.913   1_554  S
Al581      O1682   1.881   1_554  S
Al581       O586   1.774       .  S
O582        C589   1.264       .  A
O582       Al590   1.918       .  S
O583        C592   1.264       .  A
O583       Al590   1.953       .  S
O584       Al590   1.942       .  S
O585        C592   1.253       .  A
O586       Al590   1.788       .  S
O587        C588   1.261       .  A
O587      Al1665   1.908       .  S
C588        C754   1.471       .  S
C589        C833   1.482       .  S
C592        C738   1.478       .  S
C593        O594   1.262       .  A
C593       O1668   1.271       .  A
C593        C809   1.473       .  S
O594      Al1669   1.886       .  S
O595        C610   1.253       .  A
O595       Al603   1.854       .  S
C596        O606   1.261       .  A
C596        O597   1.265       .  A
C596        C746   1.480       .  S
O597       Al599   1.941       .  S
O598        C600   1.257       .  A
O598       Al599   1.883       .  S
Al599       O607   1.894       .  S
Al599      O1697   1.943       .  S
Al599       O608   1.780       .  S
C600        O613   1.267       .  A
C600        C889   1.477       .  S
O601        C611   1.259       .  A
O601      Al1691   1.898       .  S
O602        C615   1.264       .  A
O602      Al1700   1.918   1_554  S
Al603       O616   1.926       .  S
Al603      O1689   1.888   1_554  S
Al603      O1701   1.939   1_554  S
Al603      O1696   1.777   1_554  S
O604        C611   1.270       .  A
O604       Al612   1.933       .  S
O605        C614   1.269       .  A
O605       Al612   1.956       .  S
O606       Al612   1.892       .  S
O607        C614   1.259       .  A
O608       Al612   1.778       .  S
O608      Al1691   1.779       .  S
O609        C610   1.268       .  A
O609      Al1687   1.950   1_554  S
C610        C750   1.463       .  S
C611        C733   1.484       .  S
Al612      O1690   1.916       .  S
O613      Al1691   1.952       .  S
C614        C737   1.477       .  S
C615        O616   1.267       .  A
C615        C729   1.476       .  S
O617        C632   1.253       .  A
O617       Al625   1.885       .  S
C618        O628   1.270       .  A
C618        O619   1.268       .  A
C618        C721   1.473       .  S
O619       Al621   1.928   1_455  S
O620        C622   1.260       .  A
O620       Al621   1.884       .  S
Al621       O629   1.935   1_655  S
Al621       O631   1.925       .  S
Al621       O630   1.782       .  S
C622        O635   1.262       .  A
C622       C1078   1.464       .  S
O623        C633   1.252       .  A
O623       Al625   1.903       .  S
O624        C637   1.265   1_455  A
O624       Al634   1.871       .  S
Al625       O638   1.930       .  S
Al625       O635   1.908       .  S
Al625       O630   1.801       .  S
O626        C633   1.250   1_455  A
O626       Al634   1.885       .  S
O627        C636   1.253       .  A
O627       Al634   1.892       .  S
O628       Al634   1.913       .  S
O629        C636   1.264       .  A
O630       Al634   1.781   1_655  S
O631        C632   1.262       .  A
C632       C1034   1.483       .  S
C633        C726   1.466       .  S
C636        C734   1.474       .  S
C637        O638   1.269       .  A
C637       C1805   1.466   1_655  S
O639        C654   1.263       .  A
O639       Al647   1.911       .  S
C640        O650   1.263       .  A
C640        O641   1.262   1_455  A
C640        C710   1.475       .  S
O641       Al643   1.908       .  S
O642        C644   1.260       .  A
O642       Al643   1.891       .  S
Al643       O651   1.910       .  S
Al643       O653   1.901       .  S
Al643       O652   1.778       .  S
C644        O657   1.256       .  A
C644        C794   1.460       .  S
O645        C655   1.262       .  A
O645       Al647   1.920       .  S
O646        C659   1.265   1_455  A
O646       Al656   1.889       .  S
Al647       O660   1.913       .  S
Al647       O657   1.902       .  S
Al647       O652   1.799       .  S
O648        C655   1.259       .  A
O648       Al656   1.886   1_655  S
O649        C658   1.261       .  A
O649       Al656   1.923       .  S
O650       Al656   1.912       .  S
O651        C658   1.259   1_655  A
O652       Al656   1.783   1_655  S
O653        C654   1.261       .  A
C654        C770   1.477       .  S
C655        C725   1.480   1_565  S
C658        C902   1.488       .  S
C659        O660   1.261       .  A
C659        C713   1.470       .  S
O661        C676   1.257       .  A
O661       Al669   1.875       .  S
C662        O672   1.267       .  A
C662        O663   1.263       .  A
C662        C722   1.473       .  S
O663       Al665   1.926       .  S
O664        C666   1.256       .  A
O664       Al665   1.875   1_655  S
Al665       O673   1.880       .  S
Al665       O675   1.925       .  S
Al665       O674   1.777       .  S
C666        O679   1.266   1_655  A
C666       C1082   1.462       .  S
O667        C677   1.261       .  A
O667       Al669   1.901       .  S
O668        C681   1.269       .  A
O668       Al678   1.927       .  S
Al669       O682   1.905       .  S
Al669       O679   1.935       .  S
Al669       O674   1.769       .  S
O670        C677   1.272       .  A
O670       Al678   1.958       .  S
O671        C680   1.272       .  A
O671       Al678   1.973       .  S
O672       Al678   1.909       .  S
O673        C680   1.257       .  A
O674       Al678   1.775       .  S
O675        C676   1.260       .  A
C676        C718   1.464       .  S
C677        C742   1.491       .  S
C680        C705   1.481       .  S
C681        O682   1.263       .  A
C681        C730   1.469       .  S
O683        C698   1.250       .  A
O683       Al691   1.850       .  S
C684        O694   1.266       .  A
C684        O685   1.272       .  A
C684        C709   1.479   1_554  S
O685       Al687   1.951       .  S
O686        C688   1.256       .  A
O686       Al687   1.883   1_655  S
Al687       O695   1.905       .  S
Al687       O697   1.940       .  S
Al687       O696   1.774       .  S
C688        O701   1.265       .  A
C688        C798   1.478       .  S
O689        C699   1.254       .  A
O689       Al691   1.884       .  S
O690        C703   1.266       .  A
O690       Al700   1.915       .  S
Al691       O704   1.940       .  S
Al691       O701   1.942   1_455  S
Al691       O696   1.779       .  S
O692        C699   1.268       .  A
O692       Al700   1.936       .  S
O693        C702   1.262       .  A
O693       Al700   1.941       .  S
O694       Al700   1.891       .  S
O695        C702   1.257       .  A
O696       Al700   1.777       .  S
O697        C698   1.267       .  A
C698        C714   1.462       .  S
C699        C922   1.474       .  S
C702        C706   1.476   1_565  S
C703        O704   1.270       .  A
C703        C898   1.476       .  S
C705        C706   1.346       .  D
C705        H707   1.086       .  S
C706        H708   1.087       .  S
C709       C1798   1.343       .  D
C709        H711   1.086       .  S
C710       C1797   1.341       .  D
C710        H712   1.088   1_455  S
C713        C714   1.334   1_655  D
C713        H715   1.086       .  S
C714        H716   1.088       .  S
C717       C1725   1.464   1_554  S
C717        C718   1.341       .  D
C717        H719   1.089       .  S
C718        H720   1.086   1_455  S
C721        C722   1.339       .  D
C721        H723   1.088       .  S
C722        H724   1.087       .  S
C725        C726   1.347       .  D
C725        H727   1.087       .  S
C726        H728   1.088   1_655  S
C729        C730   1.340       .  D
C729        H731   1.086       .  S
C730        H732   1.088       .  S
C733        C734   1.339       .  D
C733        H735   1.086       .  S
C734        H736   1.087       .  S
C737       C1826   1.344       .  D
C737        H739   1.086       .  S
C738       C1825   1.347   1_554  D
C738        H740   1.087       .  S
C741        C742   1.345       .  D
C741        H743   1.087       .  S
C742        H744   1.087       .  S
C745        C746   1.343       .  D
C745        H747   1.088       .  S
C746        H748   1.087       .  S
C749        C750   1.339       .  D
C749        H751   1.086       .  S
C750        H752   1.088       .  S
C753        C754   1.344       .  D
C753        H755   1.087       .  S
C754        H756   1.088       .  S
C757        C758   1.338       .  D
C757        H759   1.087       .  S
C758        H760   1.088       .  S
C761        C762   1.346       .  D
C761        H763   1.088       .  S
C762        H764   1.085       .  S
C765        C766   1.343       .  D
C765        H767   1.088       .  S
C766        H768   1.086       .  S
C769        C770   1.348       .  D
C769        H771   1.087       .  S
C770        H772   1.087       .  S
C773        C774   1.342       .  D
C773        H775   1.088       .  S
C774        H776   1.087       .  S
C777        C778   1.345       .  D
C777        H779   1.086       .  S
C778        H780   1.088       .  S
C781        C782   1.337       .  D
C781        H783   1.086       .  S
C782        H784   1.089       .  S
C785        C786   1.339       .  D
C785        H787   1.088       .  S
C786        H788   1.087       .  S
C789       C1878   1.351       .  D
C789       H1879   1.087       .  S
C790       C1877   1.346   1_554  D
C790        H792   1.085       .  S
H791       C1877   1.087       .  S
C793        C794   1.333       .  D
C793        H795   1.087       .  S
C794        H796   1.087       .  S
C797        C798   1.344       .  D
C797        H799   1.085       .  S
C798        H800   1.088       .  S
C801        C802   1.345       .  D
C801        H803   1.086       .  S
C802        H804   1.087       .  S
C805        C806   1.336       .  D
C805        H807   1.086       .  S
C806        H808   1.087       .  S
C809        C810   1.344       .  D
C809        H811   1.086       .  S
C810        H812   1.089       .  S
C813        C814   1.344       .  D
C813        H815   1.088       .  S
C814        H816   1.086       .  S
C817        C818   1.344       .  D
C817        H819   1.087       .  S
C818        H820   1.088       .  S
C821        C822   1.339       .  D
C821        H823   1.088       .  S
C822        H824   1.087       .  S
C825        C826   1.336       .  D
C825        H827   1.086       .  S
C826       C1508   1.469   1_554  S
C826       H1916   1.089       .  S
H828       C1914   1.087       .  S
C829        C830   1.345       .  D
C829        H831   1.087       .  S
C830        H832   1.089       .  S
C833        C834   1.350       .  D
C833        H835   1.087       .  S
C834        H836   1.087       .  S
C837        C838   1.340       .  D
C837        H839   1.088       .  S
C838       C1461   1.474       .  S
C838       H1928   1.086       .  S
H840       C1926   1.086       .  S
C841        C842   1.343       .  D
C841        H843   1.088       .  S
C842        H844   1.087       .  S
C845        C846   1.349       .  D
C845        H847   1.087       .  S
C846        H848   1.085       .  S
C849        C850   1.349       .  D
C849        H851   1.086       .  S
C850        H852   1.087       .  S
C853        C854   1.340       .  D
C853        H855   1.086       .  S
C854        H856   1.086       .  S
C857        C858   1.345       .  D
C857        H859   1.086       .  S
C858        H860   1.087       .  S
C861        C862   1.344       .  D
C861        H863   1.087       .  S
C862        H864   1.086       .  S
C865        C866   1.345       .  D
C865        H867   1.087       .  S
C866        H868   1.088       .  S
C869        C870   1.340       .  D
C869        H871   1.089   1_455  S
C870        H872   1.086       .  S
C873        C874   1.340       .  D
C873        H875   1.089       .  S
C874       C1420   1.475       .  S
C874       H1964   1.087   1_655  S
H876       C1962   1.087       .  S
C877       C1373   1.478   1_554  S
C877        C878   1.346       .  D
C877       H1967   1.086       .  S
C878        H880   1.088   1_455  S
H879       C1965   1.087       .  S
C881        C882   1.344       .  D
C881        H883   1.088       .  S
C882        H884   1.086   1_655  S
C885        C886   1.340       .  D
C885        H887   1.086       .  S
C886        H888   1.088       .  S
C889        C890   1.344       .  D
C889        H891   1.088       .  S
C890        H892   1.086       .  S
C893        C894   1.335       .  D
C893        H895   1.086       .  S
C894        H896   1.087       .  S
C897        C898   1.341       .  D
C897        H899   1.087       .  S
C898        H900   1.087       .  S
C901        C902   1.350       .  D
C901        H903   1.087       .  S
C902        H904   1.087       .  S
C905        C906   1.341       .  D
C905        H907   1.088       .  S
C906        H908   1.087       .  S
C909        C910   1.350       .  D
C909        H911   1.089       .  S
C910        H912   1.089       .  S
C913        C914   1.340       .  D
C913        H915   1.087       .  S
C914        H916   1.086       .  S
C917        C918   1.350       .  D
C917        H919   1.085       .  S
C918        H920   1.087       .  S
C921        C922   1.336       .  D
C921        H923   1.087       .  S
C922        H924   1.086       .  S
C925        C926   1.334       .  D
C925        H927   1.087       .  S
C926        H928   1.087       .  S
C929        C930   1.346       .  D
C929        H931   1.087       .  S
C930        H932   1.088       .  S
C933        C934   1.347       .  D
C933        H935   1.086       .  S
C934        H936   1.087       .  S
C937        C938   1.343       .  D
C937        H939   1.088       .  S
C938        H940   1.086       .  S
C941        C942   1.339       .  D
C941        H943   1.087       .  S
C942        H944   1.087       .  S
C945        C946   1.341       .  D
C945        H947   1.088       .  S
C946        H948   1.086       .  S
C949        C950   1.341       .  D
C949        H951   1.088       .  S
C950        H952   1.087       .  S
C953       C1281   1.484   1_554  S
C953        C954   1.342       .  D
C953       H2043   1.087   1_554  S
C954        H956   1.087       .  S
H955       C2041   1.088       .  S
C957        C958   1.345       .  D
C957        H959   1.086       .  S
C958        H960   1.086       .  S
C961        C962   1.349       .  D
C961        H963   1.087       .  S
C962        H964   1.086       .  S
C965        C966   1.336       .  D
C965        H967   1.087       .  S
C966        H968   1.087       .  S
C969        C970   1.350       .  D
C969        H971   1.087       .  S
C970        H972   1.086       .  S
C973        C974   1.335       .  D
C973        H975   1.087       .  S
C974        H976   1.086       .  S
C977        C978   1.349       .  D
C977        H979   1.087       .  S
C978        H980   1.085       .  S
C981        C982   1.344       .  D
C981        H983   1.086       .  S
C982        H984   1.087       .  S
C985        C986   1.342       .  D
C985        H987   1.089       .  S
C986        H988   1.086       .  S
C989        C990   1.340       .  D
C989        H991   1.086       .  S
C990        H992   1.088       .  S
C993       C1200   1.464   1_554  S
C993        C994   1.343       .  D
C993        H995   1.087       .  S
C994        H996   1.089       .  S
C997        C998   1.335       .  D
C997        H999   1.086       .  S
C998       H1000   1.088       .  S
C1001      C1002   1.336       .  D
C1001      H1003   1.087       .  S
C1002      H1004   1.087       .  S
C1005      C1006   1.339       .  D
C1005      H1007   1.088       .  S
C1006      H1008   1.088       .  S
C1009      C2098   1.338       .  D
C1009      H1011   1.087       .  S
C1010      C2097   1.336       .  D
C1010      H1012   1.085       .  S
C1013      C1014   1.339       .  D
C1013      H1015   1.087       .  S
C1014      H1016   1.087       .  S
C1017      C1018   1.343       .  D
C1017      H1019   1.087       .  S
C1018      H1020   1.087       .  S
C1021      C1022   1.338       .  D
C1021      H1023   1.087       .  S
C1022      H1024   1.087       .  S
C1025      C1026   1.350       .  D
C1025      H1027   1.087       .  S
C1026      H1028   1.087       .  S
C1029      C2118   1.345       .  D
C1029      H1031   1.088       .  S
C1030      C2117   1.347       .  D
C1030      H1032   1.086       .  S
C1033      C1034   1.343       .  D
C1033      H1035   1.087       .  S
C1034      H1036   1.087       .  S
C1037      C1038   1.339       .  D
C1037      H1039   1.087       .  S
C1038      H1040   1.087       .  S
C1041      C1042   1.344       .  D
C1041      H1043   1.087       .  S
C1042      H1044   1.088       .  S
C1045      C1046   1.343       .  D
C1045      H1047   1.086       .  S
C1046      H1048   1.087       .  S
C1049      C1050   1.337       .  D
C1049      H1051   1.086       .  S
C1050      H1052   1.088       .  S
C1053      C1054   1.334       .  D
C1053      H1055   1.087       .  S
C1054      H1056   1.087       .  S
C1057      C1058   1.341       .  D
C1057      H1059   1.085       .  S
C1058      H1060   1.087       .  S
C1061      C1062   1.332       .  D
C1061      H1063   1.088       .  S
C1062      H1064   1.088       .  S
C1065      C1066   1.341       .  D
C1065      H1067   1.087       .  S
C1066      H1068   1.089       .  S
C1069      C1070   1.338       .  D
C1069      H1071   1.087       .  S
C1070      H1072   1.089       .  S
C1073      C1074   1.338       .  D
C1073      H1075   1.086       .  S
C1074      H1076   1.089       .  S
C1077      C1078   1.338       .  D
C1077      H1079   1.087       .  S
C1078      H1080   1.089       .  S
C1081      C1082   1.339       .  D
C1081      H1083   1.086       .  S
C1082      H1084   1.087       .  S
C1085      C1086   1.340       .  D
C1085      H1087   1.086       .  S
C1086      H1088   1.087       .  S
O1089      C1104   1.258       .  A
O1089     Al1097   1.886       .  S
C1090      O1100   1.267       .  A
C1090      O1091   1.264       .  A
C1090      C2158   1.476       .  S
O1091     Al1093   1.913       .  S
O1092      C1094   1.255       .  A
O1092     Al1093   1.864       .  S
Al1093     O1101   1.894       .  S
Al1093     O1103   1.900       .  S
Al1093     O1102   1.766       .  S
C1094      O1107   1.262       .  A
C1094      C2165   1.462       .  S
O1095      C1105   1.260       .  A
O1095     Al1097   1.908       .  S
O1096      C1109   1.267       .  A
O1096     Al1106   1.905       .  S
Al1097     O1110   1.935       .  S
Al1097     O1107   1.930       .  S
Al1097     O1102   1.796       .  S
O1098      C1105   1.267       .  A
O1098     Al1106   1.910       .  S
O1099      C1108   1.264       .  A
O1099     Al1106   1.938       .  S
O1100     Al1106   1.919       .  S
O1101      C1108   1.256       .  A
O1102     Al1106   1.772       .  S
O1103      C1104   1.263       .  A
C1104      C2169   1.458       .  S
C1105      C2161   1.484       .  S
C1108      C2173   1.478       .  S
C1109      O1110   1.266       .  A
C1109      C2153   1.474       .  S
O1111      C1126   1.260       .  A
O1111     Al1119   1.914       .  S
C1112      O1122   1.266       .  A
C1112      O1113   1.262       .  A
C1112      C2134   1.468       .  S
O1113     Al1115   1.910       .  S
O1114      C1116   1.263       .  A
O1114     Al1115   1.901       .  S
Al1115     O1123   1.911       .  S
Al1115     O1125   1.909       .  S
Al1115     O1124   1.774       .  S
C1116      O1129   1.263       .  A
C1116      C2142   1.469       .  S
O1117      C1127   1.267       .  A
O1117     Al1119   1.936       .  S
O1118      C1131   1.262       .  A
O1118     Al1128   1.896       .  S
Al1119     O1132   1.914       .  S
Al1119     O1129   1.926       .  S
Al1119     O1124   1.788       .  S
O1120      C1127   1.254       .  A
O1120     Al1128   1.872       .  S
O1121      C1130   1.255       .  A
O1121     Al1128   1.889       .  S
O1122     Al1128   1.918       .  S
O1123      C1130   1.264       .  A
O1124     Al1128   1.779       .  S
O1125      C1126   1.261       .  A
C1126      C2145   1.474       .  S
C1127      C2162   1.468       .  S
C1130      C2150   1.462       .  S
C1131      O1132   1.263       .  A
C1131      C2137   1.464       .  S
O1133      C1148   1.260       .  A
O1133     Al1141   1.902       .  S
C1134      O1144   1.265       .  A
C1134      O1135   1.265       .  A
C1134      C2157   1.478       .  S
O1135     Al1137   1.904       .  S
O1136      C1138   1.261       .  A
O1136     Al1137   1.932       .  S
Al1137     O1145   1.911       .  S
Al1137     O1146   1.783       .  S
C1138      O1151   1.256       .  A
C1138      C2121   1.481       .  S
O1139      C1149   1.260       .  A
O1140      C1153   1.265       .  A
Al1141     O1154   1.897       .  S
O1142      C1149   1.262       .  A
O1142     Al1150   1.904       .  S
O1143      C1152   1.265       .  A
O1143     Al1150   1.922       .  S
O1144     Al1150   1.933       .  S
O1145      C1152   1.262       .  A
O1146     Al1150   1.793       .  S
O1147      C1148   1.265       .  A
C1148      C2154   1.474       .  S
C1149      C2129   1.468       .  S
C1152      C2117   1.479   1_556  S
C1153      O1154   1.261       .  A
C1153      C2125   1.471       .  S
O1155      C1170   1.267       .  A
C1156      O1166   1.269       .  A
C1156      O1157   1.268       .  A
C1156      C2133   1.472       .  S
O1157     Al1159   1.929       .  S
O1158      C1160   1.256       .  A
O1158     Al1159   1.890       .  S
Al1159     O1167   1.876       .  S
Al1159     O1168   1.783       .  S
C1160      O1173   1.256       .  A
C1160      C2105   1.470       .  S
O1161      C1171   1.256       .  A
O1161     Al1163   1.883       .  S
O1162     Al1172   1.916       .  S
Al1163     O1173   1.904       .  S
Al1163     O1168   1.788       .  S
O1164      C1171   1.266       .  A
O1164     Al1172   1.944       .  S
O1165      C1174   1.259       .  A
O1165     Al1172   1.933       .  S
O1166     Al1172   1.898       .  S
O1167      C1174   1.253       .  A
O1168     Al1172   1.785       .  S
O1169      C1170   1.261       .  A
C1170      C2138   1.466       .  S
C1171      C2113   1.476       .  S
C1174      C2118   1.483       .  S
C1175      O1176   1.255       .  A
C1175      C2109   1.460       .  S
O1177      C1192   1.250       .  A
O1177     Al1185   1.843       .  S
C1178      O1188   1.262       .  A
C1178      O1179   1.269       .  A
C1178      C2094   1.468       .  S
O1179     Al1181   1.945       .  S
O1180      C1182   1.255       .  A
O1180     Al1181   1.878       .  S
Al1181     O1189   1.881       .  S
Al1181     O1191   1.934       .  S
Al1181     O1190   1.768       .  S
C1182      O1195   1.265       .  A
C1182      C2089   1.471       .  S
O1183      C1193   1.252       .  A
O1183     Al1185   1.878       .  S
O1184      C1197   1.262       .  A
O1184     Al1194   1.897       .  S
Al1185     O1198   1.936       .  S
Al1185     O1195   1.942       .  S
Al1185     O1190   1.776       .  S
O1186      C1193   1.268       .  A
O1186     Al1194   1.930       .  S
O1187      C1196   1.263       .  A
O1187     Al1194   1.941       .  S
O1188     Al1194   1.875       .  S
O1189      C1196   1.255       .  A
O1190     Al1194   1.778       .  S
O1191      C1192   1.266       .  A
C1192      C2097   1.458       .  S
C1193      C2149   1.468       .  S
C1196      C2101   1.468       .  S
C1197      O1198   1.272       .  A
C1197      C2110   1.466       .  S
O1199      C1214   1.250       .  A
O1199     Al1207   1.845       .  S
C1200      O1210   1.266       .  A
C1200      O1201   1.273       .  A
O1201     Al1203   1.944       .  S
O1202      C1204   1.255       .  A
O1202     Al1203   1.880       .  S
Al1203     O1211   1.892       .  S
Al1203     O1213   1.913       .  S
Al1203     O1212   1.778       .  S
C1204      O1217   1.261       .  A
C1204      C2078   1.471       .  S
O1205      C1215   1.251       .  A
O1205     Al1207   1.890       .  S
O1206      C1219   1.268       .  A
O1206     Al1216   1.910       .  S
Al1207     O1220   1.929       .  S
Al1207     O1217   1.913       .  S
Al1207     O1212   1.773       .  S
O1208      C1215   1.261       .  A
O1208     Al1216   1.909       .  S
O1209      C1218   1.256       .  A
O1209     Al1216   1.925       .  S
O1210     Al1216   1.876       .  S
O1211      C1218   1.252       .  A
O1212     Al1216   1.782       .  S
O1213      C1214   1.262       .  A
C1214      C2085   1.452       .  S
C1215      C2069   1.468       .  S
C1218      C2102   1.464       .  S
C1219      O1220   1.273       .  A
C1219      C2073   1.469       .  S
O1221      C1236   1.260       .  A
O1221     Al1229   1.903       .  S
C1222      O1232   1.263       .  A
C1222      O1223   1.266       .  A
C1222      C2093   1.464       .  S
O1223     Al1225   1.926       .  S
O1224      C1226   1.262       .  A
O1224     Al1225   1.883       .  S
Al1225     O1233   1.912       .  S
Al1225     O1235   1.899       .  S
Al1225     O1234   1.770       .  S
C1226      O1239   1.261       .  A
C1226      C2061   1.462       .  S
O1227      C1237   1.261       .  A
O1227     Al1229   1.923       .  S
O1228      C1241   1.264       .  A
O1228     Al1238   1.860       .  S
Al1229     O1242   1.928       .  S
Al1229     O1239   1.912       .  S
Al1229     O1234   1.796       .  S
O1230      C1237   1.252       .  A
O1230     Al1238   1.870       .  S
O1231      C1240   1.259       .  A
O1231     Al1238   1.914       .  S
O1232     Al1238   1.897       .  S
O1233      C1240   1.260       .  A
O1234     Al1238   1.777       .  S
O1235      C1236   1.261       .  A
C1236      C2058   1.474       .  S
C1237      C2065   1.462       .  S
C1240      C2114   1.478       .  S
C1241      O1242   1.267       .  A
C1241      C2098   1.465       .  S
O1243      C1258   1.260       .  A
O1243     Al1251   1.895       .  S
C1244      O1254   1.262       .  A
C1244      O1245   1.262       .  A
C1244      C2082   1.473       .  S
O1245     Al1247   1.918       .  S
O1246      C1248   1.267       .  A
O1246     Al1247   1.911       .  S
Al1247     O1255   1.914       .  S
Al1247     O1257   1.896       .  S
Al1247     O1256   1.773       .  S
C1248      O1261   1.257       .  A
C1248      C2054   1.468       .  S
O1249      C1259   1.260       .  A
O1249     Al1251   1.906       .  S
O1250      C1263   1.260       .  A
O1250     Al1260   1.868       .  S
Al1251     O1264   1.914       .  S
Al1251     O1261   1.904       .  S
Al1251     O1256   1.801       .  S
O1252      C1259   1.265       .  A
O1252     Al1260   1.896       .  S
O1253      C1262   1.264       .  A
O1253     Al1260   1.935       .  S
O1254     Al1260   1.903       .  S
O1255      C1262   1.261       .  A
O1256     Al1260   1.777       .  S
O1257      C1258   1.261       .  A
C1258      C2049   1.464       .  S
C1259      C2066   1.480       .  S
C1262      C2046   1.488       .  S
C1263      O1264   1.259       .  A
C1263      C2086   1.462       .  S
O1265      C1280   1.263       .  A
O1265     Al1273   1.921       .  S
C1266      O1276   1.272       .  A
C1266      O1267   1.262       .  A
C1266      C2037   1.467       .  S
O1267     Al1269   1.875       .  S
O1268      C1270   1.254       .  A
O1268     Al1269   1.887       .  S
C1270      O1283   1.262       .  A
C1270      C2053   1.456       .  S
O1271      C1281   1.258       .  A
O1271     Al1273   1.928       .  S
O1272      C1285   1.271       .  A
O1272     Al1282   1.951       .  S
Al1273     O1286   1.871       .  S
Al1273     O1278   1.792       .  S
O1274      C1281   1.257   1_554  A
O1274     Al1282   1.888   1_554  S
O1275      C1284   1.255       .  A
O1275     Al1282   1.885       .  S
O1277      C1284   1.262   1_554  A
O1278     Al1282   1.780       .  S
O1279      C1280   1.259       .  A
C1280      C2077   1.475       .  S
C1284      C2029   1.480       .  S
C1285      O1286   1.261       .  A
C1285      C2034   1.479       .  S
O1287      C1302   1.262       .  A
O1287     Al1295   1.912       .  S
C1288      O1298   1.269       .  A
C1288      O1289   1.273       .  A
C1288      C2022   1.467       .  S
O1290      C1292   1.258       .  A
Al1291     O1299   1.892       .  S
Al1291     O1301   1.939       .  S
Al1291     O1300   1.768       .  S
C1292      C2014   1.464       .  S
O1293      C1303   1.262       .  A
O1293     Al1295   1.908       .  S
O1294      C1307   1.260       .  A
O1294     Al1304   1.885       .  S
Al1295     O1308   1.928       .  S
Al1295     O1305   1.928       .  S
Al1295     O1300   1.787       .  S
O1296      C1303   1.268       .  A
O1296     Al1304   1.915       .  S
O1297      C1306   1.266       .  A
O1297     Al1304   1.928       .  S
O1299      C1306   1.260       .  A
O1300     Al1304   1.775       .  S
O1301      C1302   1.267       .  A
C1302      C2018   1.478       .  S
C1303      C2042   1.481       .  S
C1306      C2009   1.471       .  S
C1307      O1308   1.261       .  A
C1307      C2025   1.475       .  S
O1309      C1324   1.270       .  A
O1309     Al1317   1.931       .  S
C1310      O1320   1.270       .  A
C1310      O1311   1.267       .  A
C1310      C2038   1.470       .  S
O1311     Al1313   1.882       .  S
O1312      C1314   1.257       .  A
O1312     Al1313   1.912       .  S
Al1313     O1321   1.883       .  S
Al1313     O1323   1.912       .  S
Al1313     O1322   1.775       .  S
C1314      O1327   1.254       .  A
C1314      C2050   1.463       .  S
O1315      C1325   1.261       .  A
O1315     Al1317   1.903       .  S
O1316      C1329   1.263       .  A
O1316     Al1326   1.931       .  S
Al1317     O1330   1.866       .  S
Al1317     O1327   1.896       .  S
Al1317     O1322   1.764       .  S
O1318      C1325   1.259       .  A
O1318     Al1326   1.896       .  S
O1319      C1328   1.264       .  A
O1319     Al1326   1.934       .  S
O1320     Al1326   1.938       .  S
O1321      C1328   1.253       .  A
O1322     Al1326   1.786       .  S
O1323      C1324   1.267       .  A
C1324      C2033   1.468       .  S
C1325      C2001   1.471       .  S
C1328      C2005   1.468       .  S
C1329      O1330   1.260       .  A
C1329      C1997   1.474       .  S
O1331      C1346   1.256       .  A
O1331     Al1339   1.872       .  S
C1332      O1342   1.265       .  A
C1332      O1333   1.271       .  A
C1332      C2021   1.472       .  S
O1333     Al1335   1.924       .  S
O1334      C1336   1.253       .  A
O1334     Al1335   1.889       .  S
Al1335     O1343   1.880       .  S
Al1335     O1345   1.923       .  S
Al1335     O1344   1.789       .  S
C1336      O1349   1.252       .  A
C1336      C1993   1.470       .  S
O1337      C1347   1.254       .  A
O1337     Al1339   1.881       .  S
O1338      C1351   1.263       .  A
O1338     Al1348   1.912       .  S
Al1339     O1352   1.901       .  S
Al1339     O1349   1.895       .  S
Al1339     O1344   1.787       .  S
O1340      C1347   1.260       .  A
O1340     Al1348   1.921       .  S
O1341      C1350   1.251       .  A
O1341     Al1348   1.906       .  S
O1342     Al1348   1.890       .  S
O1343      C1350   1.254       .  A
O1344     Al1348   1.804       .  S
O1345      C1346   1.265       .  A
C1346      C2026   1.469       .  S
C1347      C1989   1.468       .  S
C1350      C2006   1.481       .  S
C1351      O1352   1.264       .  A
C1351      C1985   1.467       .  S
O1353      C1368   1.260       .  A
O1353     Al1361   1.913       .  S
C1354      O1364   1.267       .  A
C1354      O1355   1.267       .  A
C1354      C1969   1.471       .  S
O1355     Al1357   1.922       .  S
O1356      C1358   1.258       .  A
O1356     Al1357   1.860       .  S
Al1357     O1365   1.908       .  S
Al1357     O1367   1.905       .  S
Al1357     O1366   1.768       .  S
C1358      O1371   1.269       .  A
C1358      C1981   1.477       .  S
O1359      C1369   1.265       .  A
O1359     Al1361   1.936       .  S
O1360      C1373   1.266       .  A
O1360     Al1370   1.891       .  S
Al1361     O1374   1.943       .  S
Al1361     O1371   1.953       .  S
Al1361     O1366   1.785       .  S
O1362      C1369   1.256       .  A
O1362     Al1370   1.889       .  S
O1363      C1372   1.258       .  A
O1363     Al1370   1.909   1_655  S
O1364     Al1370   1.905       .  S
O1365      C1372   1.259   1_455  A
O1366     Al1370   1.777       .  S
O1367      C1368   1.260       .  A
C1368      C1978   1.475       .  S
C1369      C1974   1.476       .  S
C1372      C2130   1.469       .  S
C1373      O1374   1.271       .  A
O1375      C1390   1.259       .  A
O1375     Al1383   1.904       .  S
C1376      O1386   1.266       .  A
C1376      O1377   1.261       .  A
C1376      C1961   1.475       .  S
O1377     Al1379   1.905       .  S
O1378      C1380   1.261       .  A
O1378     Al1379   1.891       .  S
Al1379     O1387   1.910       .  S
Al1379     O1389   1.898       .  S
Al1379     O1388   1.776       .  S
C1380      O1393   1.261       .  A
C1380      C2013   1.467       .  S
O1381      C1391   1.258       .  A
O1381     Al1383   1.910       .  S
O1382      C1395   1.265       .  A
O1382     Al1392   1.893       .  S
Al1383     O1396   1.926       .  S
Al1383     O1393   1.916       .  S
Al1383     O1388   1.800       .  S
O1384      C1391   1.262       .  A
O1384     Al1392   1.908       .  S
O1385      C1394   1.262       .  A
O1385     Al1392   1.935   1_655  S
O1386     Al1392   1.919       .  S
O1387      C1394   1.261   1_455  A
O1388     Al1392   1.789       .  S
O1389      C1390   1.259       .  A
C1390      C1994   1.475       .  S
C1391      C1973   1.487       .  S
C1394      C1954   1.485       .  S
C1395      O1396   1.265       .  A
C1395      C1958   1.477       .  S
O1397      C1412   1.269       .  A
O1397     Al1405   1.908       .  S
C1398      O1408   1.272       .  A
C1398      O1399   1.272   1_655  A
C1398      C1970   1.467       .  S
O1399     Al1401   1.900       .  S
O1400      C1402   1.248       .  A
O1400     Al1401   1.896       .  S
Al1401     O1409   1.880   1_455  S
Al1401     O1411   1.910   1_455  S
Al1401     O1410   1.787   1_455  S
C1402      O1415   1.260       .  A
C1402      C1949   1.482       .  S
O1403      C1413   1.259       .  A
O1403     Al1405   1.894       .  S
O1404      C1417   1.261       .  A
O1404     Al1414   1.915       .  S
Al1405     O1418   1.886       .  S
Al1405     O1415   1.933   1_655  S
Al1405     O1410   1.777       .  S
O1406      C1413   1.261       .  A
O1406     Al1414   1.908       .  S
O1407      C1416   1.260       .  A
O1407     Al1414   1.946       .  S
O1408     Al1414   1.936       .  S
O1409      C1416   1.248       .  A
O1410     Al1414   1.790       .  S
O1411      C1412   1.272       .  A
C1412      C1966   1.461       .  S
C1413      C2174   1.480       .  S
C1416      C1945   1.474       .  S
C1417      O1418   1.259       .  A
C1417      C2126   1.471       .  S
O1419      C1434   1.255       .  A
O1419     Al1427   1.870       .  S
C1420      O1430   1.263       .  A
C1420      O1421   1.266       .  A
O1421     Al1423   1.938       .  S
O1422      C1424   1.257       .  A
O1422     Al1423   1.894   1_455  S
Al1423     O1431   1.899       .  S
Al1423     O1433   1.944   1_655  S
Al1423     O1432   1.778       .  S
C1424      O1437   1.264       .  A
C1424      C2017   1.481       .  S
O1425      C1435   1.257       .  A
O1425     Al1427   1.892       .  S
O1426      C1439   1.266       .  A
O1426     Al1436   1.918       .  S
Al1427     O1440   1.919       .  S
Al1427     O1437   1.938   1_655  S
Al1427     O1432   1.778       .  S
O1428      C1435   1.268       .  A
O1428     Al1436   1.934       .  S
O1429      C1438   1.264       .  A
O1429     Al1436   1.944       .  S
O1430     Al1436   1.882       .  S
O1431      C1438   1.262       .  A
O1432     Al1436   1.782       .  S
O1433      C1434   1.268   1_455  A
C1434      C1957   1.471   1_655  S
C1435      C1937   1.476       .  S
C1438      C1946   1.488       .  S
C1439      O1440   1.266       .  A
C1439      C1941   1.467       .  S
O1441      C1456   1.260       .  A
O1441     Al1449   1.899       .  S
C1442      O1452   1.263       .  A
C1442      O1443   1.266       .  A
C1442      C1929   1.472       .  S
O1443     Al1445   1.928       .  S
O1444      C1446   1.261       .  A
O1444     Al1445   1.890       .  S
Al1445     O1453   1.901       .  S
Al1445     O1455   1.913       .  S
Al1445     O1454   1.773       .  S
C1446      O1459   1.263       .  A
C1446      C2141   1.472       .  S
O1447      C1457   1.264       .  A
O1447     Al1449   1.925       .  S
O1448      C1461   1.263       .  A
O1448     Al1458   1.877       .  S
Al1449     O1462   1.934       .  S
Al1449     O1459   1.929       .  S
Al1449     O1454   1.794       .  S
O1450      C1457   1.262       .  A
O1450     Al1458   1.903       .  S
O1451      C1460   1.264       .  A
O1451     Al1458   1.932       .  S
O1452     Al1458   1.906       .  S
O1453      C1460   1.257       .  A
O1454     Al1458   1.777       .  S
O1455      C1456   1.263       .  A
C1456      C2106   1.472       .  S
C1457      C1933   1.489       .  S
C1460      C1922   1.481       .  S
C1461      O1462   1.266       .  A
O1463      C1478   1.258       .  A
O1463     Al1471   1.896       .  S
C1464      O1474   1.266       .  A
C1464      O1465   1.268       .  A
C1464      C1913   1.477       .  S
O1465     Al1467   1.938       .  S
O1466      C1468   1.257       .  A
O1466     Al1467   1.877       .  S
Al1467     O1475   1.904       .  S
Al1467     O1477   1.923       .  S
Al1467     O1476   1.777       .  S
C1468      O1481   1.268       .  A
C1468      C1909   1.470       .  S
O1469      C1479   1.261       .  A
O1469     Al1471   1.927       .  S
O1470      C1483   1.267       .  A
O1470     Al1480   1.899       .  S
Al1471     O1484   1.954       .  S
Al1471     O1481   1.942       .  S
Al1471     O1476   1.791       .  S
O1472      C1479   1.257       .  A
O1472     Al1480   1.897       .  S
O1473      C1482   1.259       .  A
O1473     Al1480   1.917       .  S
O1474     Al1480   1.916       .  S
O1475      C1482   1.257       .  A
O1476     Al1480   1.780       .  S
O1477      C1478   1.264       .  A
C1478      C1905   1.483       .  S
C1479      C1934   1.477   1_565  S
C1482      C2002   1.472       .  S
C1483      O1484   1.272       .  A
C1483      C1917   1.491       .  S
O1485      C1500   1.256       .  A
O1485     Al1493   1.861       .  S
C1486      O1496   1.260       .  A
C1486      O1487   1.266       .  A
C1486      C1930   1.475       .  S
O1487     Al1489   1.937       .  S
O1488      C1490   1.251       .  A
O1488     Al1489   1.877       .  S
Al1489     O1497   1.858       .  S
Al1489     O1499   1.947       .  S
Al1489     O1498   1.775       .  S
C1490      O1503   1.262       .  A
C1490      C2146   1.471       .  S
O1491      C1501   1.260       .  A
O1491     Al1493   1.892       .  S
O1492      C1505   1.267       .  A
O1492     Al1502   1.925       .  S
Al1493     O1506   1.915       .  S
Al1493     O1503   1.942       .  S
Al1493     O1498   1.779       .  S
O1494      C1501   1.273       .  A
O1494     Al1502   1.954       .  S
O1495      C1504   1.272       .  A
O1495     Al1502   1.982       .  S
O1496     Al1502   1.883       .  S
O1497      C1504   1.252       .  A
O1498     Al1502   1.785       .  S
O1499      C1500   1.271       .  A
C1500      C1925   1.469       .  S
C1501      C1893   1.479       .  S
C1504      C1902   1.484       .  S
C1505      O1506   1.264       .  A
C1505      C1898   1.470       .  S
O1507      C1522   1.261       .  A
O1507     Al1515   1.875       .  S
C1508      O1518   1.255       .  A
C1508      O1509   1.269       .  A
O1509     Al1511   1.938       .  S
O1510      C1512   1.252       .  A
O1510     Al1511   1.898       .  S
Al1511     O1519   1.886       .  S
Al1511     O1521   1.970       .  S
Al1511     O1520   1.783       .  S
C1512      O1525   1.258       .  A
C1512      C1889   1.487       .  S
O1513      C1523   1.264       .  A
O1513     Al1515   1.902       .  S
O1514      C1527   1.258       .  A
O1514     Al1524   1.905       .  S
Al1515     O1528   1.914       .  S
Al1515     O1525   1.940       .  S
Al1515     O1520   1.787       .  S
O1516      C1523   1.273       .  A
O1516     Al1524   1.951       .  S
O1517      C1526   1.262       .  A
O1517     Al1524   1.937       .  S
O1518     Al1524   1.860       .  S
O1519      C1526   1.257       .  A
O1520     Al1524   1.793       .  S
O1521      C1522   1.276       .  A
C1522      C1918   1.485       .  S
C1523      C2030   1.480       .  S
C1526      C1901   1.493   1_565  S
C1527      O1528   1.262       .  A
C1527      C1998   1.461       .  S
O1529      C1544   1.264       .  A
O1529     Al1537   1.916       .  S
C1530      O1540   1.265       .  A
C1530      O1531   1.264       .  A
C1530      C1873   1.478       .  S
O1532      C1534   1.259       .  A
Al1533     O1541   1.915       .  S
Al1533     O1543   1.895       .  S
Al1533     O1542   1.780       .  S
C1534      C1881   1.460       .  S
O1535      C1545   1.262       .  A
O1535     Al1537   1.937       .  S
O1536      C1549   1.269       .  A
O1536     Al1546   1.903       .  S
Al1537     O1550   1.928       .  S
Al1537     O1547   1.905       .  S
Al1537     O1542   1.798       .  S
O1538      C1545   1.255       .  A
O1538     Al1546   1.883       .  S
O1539      C1548   1.251       .  A
O1539     Al1546   1.891       .  S
O1541      C1548   1.258       .  A
O1542     Al1546   1.785       .  S
O1543      C1544   1.260       .  A
C1544      C1885   1.482       .  S
C1545      C1878   1.490       .  S
C1548      C1938   1.472       .  S
C1549      O1550   1.266       .  A
C1549      C1869   1.470       .  S
O1551      C1566   1.259       .  A
O1551     Al1559   1.914       .  S
C1552      O1562   1.271       .  A
C1552      O1553   1.270       .  A
C1552      C1861   1.471       .  S
O1553     Al1555   1.920       .  S
O1554      C1556   1.258       .  A
O1554     Al1555   1.886       .  S
C1556      O1569   1.263       .  A
C1556      C1910   1.472       .  S
O1557      C1567   1.263       .  A
O1557     Al1559   1.936       .  S
O1558      C1571   1.261       .  A
O1558     Al1568   1.890       .  S
Al1559     O1572   1.924       .  S
Al1559     O1564   1.785       .  S
O1560      C1567   1.254       .  A
O1560     Al1568   1.873       .  S
O1561      C1570   1.259       .  A
O1561     Al1568   1.899       .  S
O1563      C1570   1.264       .  A
O1564     Al1568   1.779       .  S
O1565      C1566   1.262       .  A
C1566      C1890   1.486       .  S
C1567      C1877   1.472       .  S
C1570      C2070   1.459       .  S
C1571      O1572   1.266       .  A
C1571      C1865   1.468       .  S
O1573      C1588   1.266       .  A
O1573     Al1581   1.913       .  S
C1574      O1584   1.274       .  A
C1574      O1575   1.270       .  A
C1574      C1874   1.482       .  S
O1575     Al1577   1.901       .  S
O1576      C1578   1.255       .  A
O1576     Al1577   1.915       .  S
Al1577     O1585   1.884       .  S
Al1577     O1587   1.914       .  S
Al1577     O1586   1.788       .  S
C1578      O1591   1.255       .  A
C1578      C1857   1.474       .  S
O1579      C1589   1.255       .  A
O1579     Al1581   1.883       .  S
O1580      C1593   1.266       .  A
O1580     Al1590   1.935       .  S
Al1581     O1594   1.870       .  S
Al1581     O1591   1.905       .  S
Al1581     O1586   1.780       .  S
O1582      C1589   1.264       .  A
O1582     Al1590   1.934       .  S
O1583      C1592   1.265       .  A
O1583     Al1590   1.961       .  S
O1584     Al1590   1.946       .  S
O1585      C1592   1.251       .  A
O1586     Al1590   1.796       .  S
O1587      C1588   1.268       .  A
C1588      C1870   1.472       .  S
C1589      C1953   1.489       .  S
C1592      C1853   1.493       .  S
C1593      O1594   1.259       .  A
C1593      C1942   1.477       .  S
O1595      C1610   1.266       .  A
O1595     Al1603   1.937       .  S
C1596      O1606   1.272       .  A
C1596      O1597   1.264       .  A
C1596      C1862   1.478       .  S
O1597     Al1599   1.874       .  S
O1598      C1600   1.269       .  A
O1598     Al1599   1.959       .  S
Al1599     O1607   1.923       .  S
Al1599     O1609   1.900       .  S
Al1599     O1608   1.781       .  S
C1600      O1613   1.256       .  A
C1600      C1906   1.480       .  S
O1601      C1611   1.260       .  A
O1601     Al1603   1.919       .  S
O1602      C1615   1.270       .  A
O1602     Al1612   1.947       .  S
Al1603     O1616   1.865       .  S
Al1603     O1613   1.891       .  S
Al1603     O1608   1.780       .  S
O1604      C1611   1.259       .  A
O1604     Al1612   1.909       .  S
O1605      C1614   1.259       .  A
O1605     Al1612   1.925       .  S
O1606     Al1612   1.951       .  S
O1607      C1614   1.262       .  A
O1608     Al1612   1.789       .  S
O1609      C1610   1.262       .  A
C1610      C1866   1.471       .  S
C1611      C2045   1.488       .  S
C1614      C1854   1.503       .  S
C1615      O1616   1.257       .  A
C1615      C2074   1.466       .  S
O1617      C1632   1.264       .  A
O1617     Al1625   1.920       .  S
C1618      O1628   1.267       .  A
C1618      O1619   1.262       .  A
C1618      C1846   1.472       .  S
O1619     Al1621   1.909       .  S
O1620      C1622   1.262       .  A
O1620     Al1621   1.898       .  S
Al1621     O1629   1.918       .  S
Al1621     O1631   1.914       .  S
Al1621     O1630   1.775       .  S
C1622      O1635   1.258       .  A
C1622      C2062   1.460       .  S
O1623      C1633   1.266       .  A
O1623     Al1625   1.941       .  S
O1624      C1637   1.263       .  A
O1624     Al1634   1.900       .  S
Al1625     O1638   1.918       .  S
Al1625     O1635   1.909       .  S
Al1625     O1630   1.797       .  S
O1626      C1633   1.263       .  A
O1626     Al1634   1.897       .  S
O1627      C1636   1.258       .  A
O1627     Al1634   1.905       .  S
O1628     Al1634   1.922       .  S
O1629      C1636   1.264       .  A
O1630     Al1634   1.771       .  S
O1631      C1632   1.265       .  A
C1632      C2090   1.478       .  S
C1633      C1849   1.476       .  S
C1636      C1894   1.477       .  S
C1637      O1638   1.259       .  A
C1637      C1841   1.463       .  S
O1639      C1654   1.276       .  A
O1639     Al1647   1.971       .  S
C1640      O1650   1.268       .  A
C1640      O1641   1.260       .  A
C1640      C1833   1.471       .  S
O1641     Al1643   1.881       .  S
O1642      C1644   1.265       .  A
O1642     Al1643   1.922       .  S
Al1643     O1651   1.928       .  S
Al1643     O1653   1.879       .  S
Al1643     O1652   1.779       .  S
C1644      O1657   1.260       .  A
C1644      C1982   1.467       .  S
O1645      C1655   1.270       .  A
O1645     Al1647   1.979       .  S
O1646      C1659   1.268       .  A
O1646     Al1656   1.933       .  S
Al1647     O1660   1.876       .  S
Al1647     O1657   1.909       .  S
Al1647     O1652   1.797       .  S
O1648      C1655   1.251       .  A
O1648     Al1656   1.842       .  S
O1649      C1658   1.251       .  A
O1649     Al1656   1.870       .  S
O1650     Al1656   1.942       .  S
O1651      C1658   1.262       .  A
O1652     Al1656   1.773       .  S
O1653      C1654   1.257       .  A
C1654      C1950   1.483       .  S
C1655      C1850   1.499       .  S
C1658      C1829   1.468       .  S
C1659      O1660   1.256       .  A
C1659      C1837   1.473       .  S
O1661      C1676   1.266       .  A
C1662      O1672   1.268       .  A
C1662      O1663   1.268       .  A
C1662      C1845   1.475       .  S
O1663     Al1665   1.932       .  S
O1664      C1666   1.259       .  A
O1664     Al1665   1.904       .  S
Al1665     O1673   1.898       .  S
Al1665     O1674   1.792       .  S
C1666      O1679   1.255       .  A
C1666      C2057   1.469       .  S
O1667      C1677   1.259       .  A
O1667     Al1669   1.904       .  S
O1668     Al1678   1.935       .  S
Al1669     O1679   1.891       .  S
Al1669     O1674   1.785       .  S
O1670      C1677   1.261       .  A
O1670     Al1678   1.924       .  S
O1671      C1680   1.260       .  A
O1671     Al1678   1.935       .  S
O1672     Al1678   1.902       .  S
O1673      C1680   1.254       .  A
O1674     Al1678   1.791       .  S
O1675      C1676   1.268       .  A
C1676      C1842   1.466       .  S
C1677      C1921   1.479       .  S
C1680      C1826   1.480       .  S
C1681      O1682   1.259       .  A
C1681      C1897   1.480       .  S
O1683      C1698   1.254       .  A
O1683     Al1691   1.877       .  S
C1684      O1694   1.263       .  A
C1684      O1685   1.268       .  A
C1684      C1834   1.478       .  S
O1685     Al1687   1.944       .  S
O1686      C1688   1.255       .  A
O1686     Al1687   1.884       .  S
Al1687     O1695   1.884   1_556  S
Al1687     O1696   1.776       .  S
C1688      O1701   1.264       .  A
C1688      C1977   1.473       .  S
O1689      C1699   1.257       .  A
O1690      C1703   1.265       .  A
Al1691     O1704   1.918       .  S
O1692      C1699   1.272       .  A
O1692     Al1700   1.949       .  S
O1693      C1702   1.267       .  A
O1693     Al1700   1.957       .  S
O1694     Al1700   1.891       .  S
O1695      C1702   1.259   1_554  A
O1696     Al1700   1.776       .  S
O1697      C1698   1.266       .  A
C1698      C1838   1.470       .  S
C1699      C1821   1.482       .  S
C1702      C1825   1.493       .  S
C1703      O1704   1.265       .  A
C1703      C1817   1.475       .  S
O1705      C1720   1.259       .  A
O1705     Al1713   1.901       .  S
C1706      O1716   1.267       .  A
C1706      O1707   1.267       .  A
C1706      C1809   1.474       .  S
O1707     Al1709   1.928   1_455  S
O1708      C1710   1.266       .  A
O1708     Al1709   1.904       .  S
Al1709     O1717   1.935   1_655  S
Al1709     O1719   1.917       .  S
Al1709     O1718   1.775       .  S
C1710      O1723   1.259       .  A
C1710      C2166   1.461       .  S
O1711      C1721   1.257       .  A
O1711     Al1713   1.917       .  S
O1712      C1725   1.261       .  A
O1712     Al1722   1.879       .  S
Al1713     O1726   1.920       .  S
Al1713     O1723   1.899       .  S
Al1713     O1718   1.794       .  S
O1714      C1721   1.253   1_455  A
O1714     Al1722   1.880       .  S
O1715      C1724   1.255       .  A
O1715     Al1722   1.897       .  S
O1716     Al1722   1.914       .  S
O1717      C1724   1.266       .  A
O1718     Al1722   1.783   1_655  S
O1719      C1720   1.262       .  A
C1720      C2122   1.483       .  S
C1721      C1814   1.464       .  S
C1724      C1822   1.476       .  S
C1725      O1726   1.268   1_455  A
O1727      C1742   1.262       .  A
O1727     Al1735   1.907       .  S
C1728      O1738   1.265   1_455  A
C1728      O1729   1.264   1_455  A
C1728      C1798   1.474       .  S
O1729     Al1731   1.919       .  S
O1730      C1732   1.262       .  A
O1730     Al1731   1.887       .  S
Al1731     O1739   1.900       .  S
Al1731     O1741   1.905       .  S
Al1731     O1740   1.770       .  S
C1732      O1745   1.261       .  A
C1732      C1882   1.462       .  S
O1733      C1743   1.261       .  A
O1733     Al1735   1.921       .  S
O1734      C1747   1.263       .  A
O1734     Al1744   1.886       .  S
Al1735     O1748   1.936       .  S
Al1735     O1745   1.917       .  S
Al1735     O1740   1.793       .  S
O1736      C1743   1.260       .  A
O1736     Al1744   1.886       .  S
O1737      C1746   1.260       .  A
O1737     Al1744   1.908   1_455  S
O1738     Al1744   1.920       .  S
O1739      C1746   1.259   1_655  A
O1740     Al1744   1.773       .  S
O1741      C1742   1.262       .  A
C1742      C1858   1.475       .  S
C1743      C1813   1.481   1_565  S
C1746      C1990   1.470       .  S
C1747      O1748   1.265       .  A
C1747      C1801   1.473       .  S
O1749      C1764   1.259       .  A
O1749     Al1757   1.873       .  S
C1750      O1760   1.261       .  A
C1750      O1751   1.263       .  A
C1750      C1810   1.474       .  S
O1751     Al1753   1.928       .  S
O1752      C1754   1.254       .  A
O1752     Al1753   1.875   1_655  S
Al1753     O1761   1.860       .  S
Al1753     O1763   1.921       .  S
Al1753     O1762   1.783       .  S
C1754      O1767   1.255   1_655  A
C1754      C2170   1.458       .  S
O1755      C1765   1.257       .  A
O1755     Al1757   1.883       .  S
O1756      C1769   1.266       .  A
O1756     Al1766   1.927       .  S
Al1757     O1770   1.906       .  S
Al1757     O1767   1.904       .  S
Al1757     O1762   1.779       .  S
O1758      C1765   1.270       .  A
O1758     Al1766   1.942       .  S
O1759      C1768   1.267       .  A
O1759     Al1766   1.953       .  S
O1760     Al1766   1.894       .  S
O1761      C1768   1.254       .  A
O1762     Al1766   1.783       .  S
O1763      C1764   1.266       .  A
C1764      C1806   1.462       .  S
C1765      C1830   1.465       .  S
C1768      C1793   1.485       .  S
C1769      O1770   1.260       .  A
C1769      C1818   1.472       .  S
O1771      C1786   1.264       .  A
O1771     Al1779   1.910       .  S
C1772      O1782   1.269       .  A
C1772      O1773   1.268       .  A
C1772      C1797   1.476       .  S
O1773     Al1775   1.898       .  S
O1774      C1776   1.261       .  A
O1774     Al1775   1.930   1_655  S
Al1775     O1783   1.910       .  S
Al1775     O1785   1.913   1_455  S
Al1775     O1784   1.785       .  S
C1776      O1789   1.258   1_655  A
C1776      C1886   1.481       .  S
O1777      C1787   1.258       .  A
O1777     Al1779   1.895       .  S
O1778      C1791   1.262       .  A
O1778     Al1788   1.922       .  S
Al1779     O1792   1.876       .  S
Al1779     O1789   1.909       .  S
Al1779     O1784   1.778       .  S
O1780      C1787   1.256       .  A
O1780     Al1788   1.895       .  S
O1781      C1790   1.254       .  A
O1781     Al1788   1.903       .  S
O1782     Al1788   1.935       .  S
O1783      C1790   1.258       .  A
O1784     Al1788   1.799       .  S
O1785      C1786   1.267   1_655  A
C1786      C1802   1.470   1_455  S
C1787      C2010   1.472       .  S
C1790      C1794   1.475   1_565  S
C1791      O1792   1.257       .  A
C1791      C1986   1.464       .  S
C1793      C1794   1.352       .  D
C1793      H1795   1.086       .  S
C1794      H1796   1.087       .  S
C1797      H1799   1.086       .  S
C1798      H1800   1.088       .  S
C1801      C1802   1.340       .  D
C1801      H1803   1.086       .  S
C1802      H1804   1.089   1_655  S
C1805      C1806   1.342       .  D
C1805      H1807   1.086   1_455  S
C1806      H1808   1.088       .  S
C1809      C1810   1.342       .  D
C1809      H1811   1.088       .  S
C1810      H1812   1.086       .  S
C1813      C1814   1.345       .  D
C1813      H1815   1.086       .  S
C1814      H1816   1.088       .  S
C1817      C1818   1.341       .  D
C1817      H1819   1.087       .  S
C1818      H1820   1.087       .  S
C1821      C1822   1.338       .  D
C1821      H1823   1.086       .  S
C1822      H1824   1.087       .  S
C1825      H1827   1.085       .  S
C1826      H1828   1.087       .  S
C1829      C1830   1.337       .  D
C1829      H1831   1.088       .  S
C1830      H1832   1.086       .  S
C1833      C1834   1.343       .  D
C1833      H1835   1.087       .  S
C1834      H1836   1.086       .  S
C1837      C1838   1.338       .  D
C1837      H1839   1.087       .  S
C1838      H1840   1.088       .  S
C1841      C1842   1.338       .  D
C1841      H1843   1.086       .  S
C1842      H1844   1.089       .  S
C1845      C1846   1.338       .  D
C1845      H1847   1.086       .  S
C1846      H1848   1.088       .  S
C1849      C1850   1.355       .  D
C1849      H1851   1.087       .  S
C1850      H1852   1.086       .  S
C1853      C1854   1.350       .  D
C1853      H1855   1.087       .  S
C1854      H1856   1.085       .  S
C1857      C1858   1.347       .  D
C1857      H1859   1.087       .  S
C1858      H1860   1.087       .  S
C1861      C1862   1.344       .  D
C1861      H1863   1.088       .  S
C1862      H1864   1.085       .  S
C1865      C1866   1.343       .  D
C1865      H1867   1.086       .  S
C1866      H1868   1.087       .  S
C1869      C1870   1.338       .  D
C1869      H1871   1.086       .  S
C1870      H1872   1.089       .  S
C1873      C1874   1.344       .  D
C1873      H1875   1.088       .  S
C1874      H1876   1.086       .  S
C1878      H1880   1.085       .  S
C1881      C1882   1.335       .  D
C1881      H1883   1.087       .  S
C1882      H1884   1.087       .  S
C1885      C1886   1.350       .  D
C1885      H1887   1.087       .  S
C1886      H1888   1.087       .  S
C1889      C1890   1.346       .  D
C1889      H1891   1.087       .  S
C1890      H1892   1.086       .  S
C1893      C1894   1.341       .  D
C1893      H1895   1.086       .  S
C1894      H1896   1.086       .  S
C1897      C1898   1.339       .  D
C1897      H1899   1.086       .  S
C1898      H1900   1.088       .  S
C1901      C1902   1.346       .  D
C1901      H1903   1.086       .  S
C1902      H1904   1.089       .  S
C1905      C1906   1.343       .  D
C1905      H1907   1.087       .  S
C1906      H1908   1.087       .  S
C1909      C1910   1.343       .  D
C1909      H1911   1.087       .  S
C1910      H1912   1.088       .  S
C1913      C1914   1.347       .  D
C1913      H1915   1.085       .  S
C1917      C1918   1.347       .  D
C1917      H1919   1.085       .  S
C1918      H1920   1.087       .  S
C1921      C1922   1.345       .  D
C1921      H1923   1.087       .  S
C1922      H1924   1.087       .  S
C1925      C1926   1.340       .  D
C1925      H1927   1.089   1_556  S
C1929      C1930   1.345       .  D
C1929      H1931   1.088       .  S
C1930      H1932   1.086       .  S
C1933      C1934   1.348       .  D
C1933      H1935   1.085       .  S
C1934      H1936   1.087       .  S
C1937      C1938   1.339       .  D
C1937      H1939   1.086       .  S
C1938      H1940   1.087       .  S
C1941      C1942   1.342       .  D
C1941      H1943   1.088       .  S
C1942      H1944   1.086       .  S
C1945      C1946   1.342       .  D
C1945      H1947   1.088       .  S
C1946      H1948   1.086       .  S
C1949      C1950   1.337       .  D
C1949      H1951   1.086       .  S
C1950      H1952   1.086       .  S
C1953      C1954   1.354       .  D
C1953      H1955   1.085       .  S
C1954      H1956   1.086       .  S
C1957      C1958   1.341       .  D
C1957      H1959   1.088   1_455  S
C1958      H1960   1.086       .  S
C1961      C1962   1.341   1_455  D
C1961      H1963   1.088       .  S
C1965      C1966   1.336   1_455  D
C1966      H1968   1.088       .  S
C1969      C1970   1.338   1_455  D
C1969      H1971   1.088       .  S
C1970      H1972   1.086       .  S
C1973      C1974   1.343       .  D
C1973      H1975   1.086       .  S
C1974      H1976   1.088       .  S
C1977      C1978   1.342       .  D
C1977      H1979   1.088       .  S
C1978      H1980   1.086       .  S
C1981      C1982   1.342       .  D
C1981      H1983   1.086       .  S
C1982      H1984   1.088       .  S
C1985      C1986   1.338       .  D
C1985      H1987   1.087       .  S
C1986      H1988   1.089       .  S
C1989      C1990   1.345       .  D
C1989      H1991   1.087       .  S
C1990      H1992   1.086       .  S
C1993      C1994   1.343       .  D
C1993      H1995   1.087       .  S
C1994      H1996   1.086       .  S
C1997      C1998   1.337       .  D
C1997      H1999   1.086       .  S
C1998      H2000   1.088       .  S
C2001      C2002   1.344       .  D
C2001      H2003   1.087       .  S
C2002      H2004   1.087       .  S
C2005      C2006   1.339       .  D
C2005      H2007   1.087       .  S
C2006      H2008   1.086       .  S
C2009      C2010   1.343       .  D
C2009      H2011   1.088       .  S
C2010      H2012   1.087       .  S
C2013      C2014   1.337       .  D
C2013      H2015   1.087       .  S
C2014      H2016   1.087       .  S
C2017      C2018   1.344       .  D
C2017      H2019   1.088       .  S
C2018      H2020   1.086       .  S
C2021      C2022   1.341       .  D
C2021      H2023   1.087       .  S
C2022      H2024   1.087       .  S
C2025      C2026   1.342       .  D
C2025      H2027   1.086       .  S
C2026      H2028   1.088       .  S
C2029      C2030   1.345       .  D
C2029      H2031   1.087       .  S
C2030      H2032   1.086       .  S
C2033      C2034   1.346       .  D
C2033      H2035   1.087       .  S
C2034      H2036   1.086       .  S
C2037      C2038   1.342       .  D
C2037      H2039   1.087       .  S
C2038      H2040   1.086       .  S
C2041      C2042   1.341       .  D
C2042      H2044   1.087       .  S
C2045      C2046   1.350       .  D
C2045      H2047   1.087       .  S
C2046      H2048   1.087       .  S
C2049      C2050   1.342       .  D
C2049      H2051   1.087       .  S
C2050      H2052   1.087       .  S
C2053      C2054   1.330       .  D
C2053      H2055   1.088       .  S
C2054      H2056   1.087       .  S
C2057      C2058   1.340       .  D
C2057      H2059   1.087       .  S
C2058      H2060   1.086       .  S
C2061      C2062   1.331       .  D
C2061      H2063   1.087       .  S
C2062      H2064   1.087       .  S
C2065      C2066   1.340       .  D
C2065      H2067   1.088       .  S
C2066      H2068   1.087       .  S
C2069      C2070   1.337       .  D
C2069      H2071   1.086       .  S
C2070      H2072   1.087       .  S
C2073      C2074   1.338       .  D
C2073      H2075   1.087       .  S
C2074      H2076   1.089       .  S
C2077      C2078   1.344       .  D
C2077      H2079   1.086       .  S
C2078      H2080   1.087       .  S
C2081      C2082   1.340       .  D
C2081      H2083   1.087       .  S
C2082      H2084   1.088       .  S
C2085      C2086   1.334       .  D
C2085      H2087   1.088       .  S
C2086      H2088   1.086       .  S
C2089      C2090   1.343       .  D
C2089      H2091   1.088       .  S
C2090      H2092   1.086       .  S
C2093      C2094   1.341       .  D
C2093      H2095   1.088       .  S
C2094      H2096   1.087       .  S
C2097      H2099   1.089   1_556  S
C2098      H2100   1.086       .  S
C2101      C2102   1.340       .  D
C2101      H2103   1.087       .  S
C2102      H2104   1.087       .  S
C2105      C2106   1.340       .  D
C2105      H2107   1.087       .  S
C2106      H2108   1.087       .  S
C2109      C2110   1.335       .  D
C2109      H2111   1.088       .  S
C2110      H2112   1.087       .  S
C2113      C2114   1.349       .  D
C2113      H2115   1.087       .  S
C2114      H2116   1.087       .  S
C2117      H2119   1.087       .  S
C2118      H2120   1.086       .  S
C2121      C2122   1.345       .  D
C2121      H2123   1.087       .  S
C2122      H2124   1.087       .  S
C2125      C2126   1.337       .  D
C2125      H2127   1.087       .  S
C2126      H2128   1.086       .  S
C2129      C2130   1.347       .  D
C2129      H2131   1.087       .  S
C2130      H2132   1.088       .  S
C2133      C2134   1.336       .  D
C2133      H2135   1.087       .  S
C2134      H2136   1.089       .  S
C2137      C2138   1.343       .  D
C2137      H2139   1.086       .  S
C2138      H2140   1.087       .  S
C2141      C2142   1.336       .  D
C2141      H2143   1.086       .  S
C2142      H2144   1.087       .  S
C2145      C2146   1.342       .  D
C2145      H2147   1.086       .  S
C2146      H2148   1.088       .  S
C2149      C2150   1.333       .  D
C2149      H2151   1.086       .  S
C2150      H2152   1.087       .  S
C2153      C2154   1.339       .  D
C2153      H2155   1.086       .  S
C2154      H2156   1.089       .  S
C2157      C2158   1.341       .  D
C2157      H2159   1.087       .  S
C2158      H2160   1.089       .  S
C2161      C2162   1.340       .  D
C2161      H2163   1.086       .  S
C2162      H2164   1.088       .  S
C2165      C2166   1.336       .  D
C2165      H2167   1.087       .  S
C2166      H2168   1.088       .  S
C2169      C2170   1.335       .  D
C2169      H2171   1.087       .  S
C2170      H2172   1.087       .  S
C2173      C2174   1.346       .  D
C2173      H2175   1.087       .  S
C2174      H2176   1.087       .  S
