geometry optimzed in LAMMPS
_audit_creation_date              2020-12-01 
_audit_creation_method            'lammps2cif' 
_symmetry_space_group_name_H-M    'P1' 
_symmetry_Int_Tables_number       1 
_symmetry_cell_setting            triclinic 
loop_ 
_symmetry_equiv_pos_as_xyz 
  x,y,z 
_cell_length_a                    74.22089731 
_cell_length_b                    74.16773374660902 
_cell_length_c                    31.11765735135051 
_cell_angle_alpha                 90.03335729524204 
_cell_angle_beta                  90.11221902633116 
_cell_angle_gamma                 119.92651006120151 
loop_ 
_atom_site_label 
_atom_site_type_symbol 
_atom_site_fract_x 
_atom_site_fract_y 
_atom_site_fract_z 
_atom_site_charge 
O1          O  0.32124436  0.87833271  0.42582966    -0.84700
O2          O  0.30211752  0.85312922  0.49543268    -0.81800
C3          C  0.30231189  0.83679937  0.48411493     0.98700
O4          O  0.31915017  0.83639891  0.48469931    -0.81800
O5          O  0.36204380  0.85078392  0.48623260    -0.84400
C6          C  0.36825801  0.85588735  0.44803265     1.03300
O7          O  0.36592108  0.86973818  0.42987450    -0.77200
O8          O  0.35443152  0.89875038  0.41308060    -0.77400
C9          C  0.33590376  0.88825856  0.39949695     1.03200
O10         O  0.34205816  0.91403371  0.48125144    -0.84700
O11         O  0.32640470  0.88778488  0.55294969    -0.81800
C12         C  0.32354493  0.87350410  0.57912963     0.98800
O13         O  0.32324516  0.85737068  0.56500073    -0.81800
O14         O  0.36558243  0.87517226  0.56015466    -0.84400
C15         C  0.38379879  0.88720733  0.54685590     1.03200
O16         O  0.38701911  0.89168581  0.50730126    -0.77200
O17         O  0.37305873  0.91862150  0.49366040    -0.77400
C18         C  0.36104001  0.92588579  0.49034467     1.03200
Cr19       Cr  0.32442356  0.88296959  0.48920585     1.93700
Cr20       Cr  0.34259372  0.85638001  0.52152016     1.93200
Cr21       Cr  0.36833615  0.89350199  0.46297097     1.39100
O22         O  0.34515655  0.87764846  0.49101359    -1.22500
O23         O  0.31733804  0.87636726  0.92691012    -0.84700
O24         O  0.29868966  0.85143189  0.99831277    -0.81800
C25         C  0.29825841  0.83451632  0.98977714     0.98700
O26         O  0.31499449  0.83406908  0.98789337    -0.81800
O27         O  0.35677949  0.84713626  0.98016016    -0.84400
C28         C  0.36192511  0.85169839  0.94121656     1.03300
O29         O  0.36074565  0.86645847  0.92409794    -0.77200
O30         O  0.35026074  0.89685456  0.91170482    -0.77400
C31         C  0.33144391  0.88686245  0.89983578     1.03200
O32         O  0.33982480  0.91194871  0.98221539    -0.84700
O33         O  0.32468112  0.88626691  0.05314193    -0.81800
C34         C  0.32221447  0.87241735  0.07993443     0.98800
O35         O  0.32292286  0.85654869  0.06740619    -0.81800
O36         O  0.36492002  0.87243862  0.05477443    -0.84400
C37         C  0.38277263  0.88250627  0.03823842     1.03200
O38         O  0.38460209  0.88779214  0.99907481    -0.77200
O39         O  0.37106979  0.91614623  0.99019600    -0.77400
C40         C  0.35912263  0.92362023  0.98852068     1.03200
Cr41       Cr  0.32166998  0.88105803  0.99012615     1.93700
Cr42       Cr  0.33998419  0.85416522  0.02006933     1.93200
Cr43       Cr  0.36483282  0.89060948  0.95880740     1.39100
O44         O  0.34219383  0.87531718  0.98965061    -1.22500
O45         O  0.44470065  0.12430943  0.08651741    -0.84700
O46         O  0.45139318  0.15095395  0.01895678    -0.81800
C47         C  0.46784726  0.16759842  0.02923028     0.98700
O48         O  0.48503871  0.16806606  0.03082539    -0.81800
O49         O  0.51350608  0.15431456  0.03729676    -0.84400
C50         C  0.51326722  0.14815627  0.07543487     1.03300
O51         O  0.49689577  0.13315015  0.09014309    -0.77200
O52         O  0.45629725  0.10280051  0.09870075    -0.77400
C53         C  0.44819063  0.11323342  0.11229593     1.03200
O54         O  0.43193614  0.08988078  0.02807428    -0.84700
O55         O  0.44334356  0.11716533  0.96010929    -0.81800
C56         C  0.45541037  0.13128329  0.93469078     0.98800
O57         O  0.47102847  0.14747819  0.94941919    -0.81800
O58         O  0.49685783  0.13145224  0.95902046    -0.84400
C59         C  0.50448441  0.12091085  0.97369834     1.03200
O60         O  0.50083221  0.11455307  0.01224297    -0.77200
O61         O  0.45905733  0.08631316  0.01673618    -0.77400
C62         C  0.43966150  0.07853616  0.01860357     1.03200
Cr63       Cr  0.44468410  0.12103341  0.02335742     1.93700
Cr64       Cr  0.49014409  0.14874596  0.99642844     1.93200
Cr65       Cr  0.47769662  0.11039569  0.05225799     1.39100
O66         O  0.47087970  0.12679742  0.02421853    -1.22500
O67         O  0.44877849  0.12910444  0.58518926    -0.84700
O68         O  0.45316969  0.15365820  0.51538284    -0.81800
C69         C  0.46971904  0.17021793  0.52502874     0.98700
O70         O  0.48698661  0.17085566  0.52447615    -0.81800
O71         O  0.51571567  0.15747799  0.52650681    -0.84400
C72         C  0.51688835  0.15208444  0.56457602     1.03300
O73         O  0.50115456  0.13727484  0.58185600    -0.77200
O74         O  0.46063514  0.10775036  0.59628487    -0.77400
C75         C  0.45344220  0.11886252  0.61085213     1.03200
O76         O  0.43385099  0.09318913  0.53002006    -0.84700
O77         O  0.44339205  0.11897993  0.45909289    -0.81800
C78         C  0.45459261  0.13282825  0.43213974     0.98800
O79         O  0.47056549  0.14921072  0.44493484    -0.81800
O80         O  0.49675647  0.13339315  0.45112031    -0.84400
C81         C  0.50449770  0.12282394  0.46512473     1.03200
O82         O  0.50175368  0.11686711  0.50392631    -0.77200
O83         O  0.46021483  0.08903544  0.51446708    -0.77400
C84         C  0.44091103  0.08154264  0.51856076     1.03200
Cr85       Cr  0.44661441  0.12413000  0.52212378     1.93700
Cr86       Cr  0.49111499  0.15122058  0.48919681     1.93200
Cr87       Cr  0.48029262  0.11384634  0.54705777     1.39100
O88         O  0.47275664  0.12979088  0.51960094    -1.22500
O89         O  0.68106247  0.12945202  0.17871305    -0.84700
O90         O  0.70017634  0.15393526  0.24968885    -0.81800
C91         C  0.69945906  0.17039361  0.24248582     0.98700
O92         O  0.68226915  0.16992319  0.24249646    -0.81800
O93         O  0.64020300  0.15552029  0.24023664    -0.84400
C94         C  0.63437776  0.15118245  0.20149633     1.03300
O95         O  0.63654827  0.13746094  0.18217707    -0.77200
O96         O  0.64810538  0.10817227  0.16556758    -0.77400
C97         C  0.66655025  0.11930859  0.15217718     1.03200
O98         O  0.66019762  0.09283848  0.23279871    -0.84700
O99         O  0.67612225  0.11827853  0.30447620    -0.81800
C100        C  0.67862125  0.13186543  0.33206004     0.98800
O101        O  0.67771007  0.14773167  0.32054852    -0.81800
O102        O  0.63526378  0.13014834  0.31308244    -0.84400
C103        C  0.61723184  0.12005750  0.29739283     1.03200
O104        O  0.61487050  0.11533421  0.25783446    -0.77200
O105        O  0.62927973  0.08834990  0.24548816    -0.77400
C106        C  0.64126784  0.08099171  0.24255775     1.03200
Cr107      Cr  0.67791210  0.12396467  0.24161552     1.93700
Cr108      Cr  0.65884369  0.14936039  0.27657692     1.93200
Cr109      Cr  0.63397191  0.11341914  0.21488474     1.39100
O110        O  0.65691628  0.12891598  0.24426226    -1.22500
O111        O  0.68024144  0.12683415  0.67673170    -0.84700
O112        O  0.70085524  0.15333286  0.74478573    -0.81800
C113        C  0.70063327  0.16983155  0.73475749     0.98700
O114        O  0.68356875  0.16964664  0.73321740    -0.81800
O115        O  0.64126658  0.15601313  0.73196602    -0.84400
C116        C  0.63457708  0.14987710  0.69418368     1.03300
O117        O  0.63573697  0.13491314  0.67835090    -0.77200
O118        O  0.64698786  0.10553306  0.66530929    -0.77400
C119        C  0.66545728  0.11581470  0.65127407     1.03200
O120        O  0.65984528  0.09201825  0.73350333    -0.84700
O121        O  0.67608230  0.11895601  0.80307836    -0.81800
C122        C  0.67857102  0.13314322  0.82897080     0.98800
O123        O  0.67904157  0.14937368  0.81466390    -0.81800
O124        O  0.63710540  0.13328625  0.80919370    -0.84400
C125        C  0.61868549  0.12222308  0.79629557     1.03200
O126        O  0.61519422  0.11559961  0.75779789    -0.77200
O127        O  0.62924205  0.08790336  0.74787623    -0.77400
C128        C  0.64088039  0.08026260  0.74285837     1.03200
Cr129      Cr  0.67783658  0.12321049  0.73981545     1.93700
Cr130      Cr  0.66012825  0.15052496  0.76988337     1.93200
Cr131      Cr  0.63356977  0.11217617  0.71445647     1.39100
O132        O  0.65713439  0.12863995  0.74119232    -1.22500
O133        O  0.55345590  0.87537019  0.33128110    -0.84700
O134        O  0.54882972  0.85206110  0.25849449    -0.81800
C135        C  0.53176855  0.83543043  0.26525192     0.98700
O136        O  0.51501365  0.83586287  0.26545011    -0.81800
O137        O  0.48715774  0.85015976  0.27075946    -0.84400
C138        C  0.48618527  0.85432856  0.30989028     1.03300
O139        O  0.50214111  0.86836731  0.32847854    -0.77200
O140        O  0.54277553  0.89751221  0.34488115    -0.77400
C141        C  0.54975518  0.88596953  0.35784832     1.03200
O142        O  0.56950063  0.91289291  0.28022091    -0.84700
O143        O  0.56042699  0.88895926  0.20705528    -0.81800
C144        C  0.54929403  0.87611455  0.17851248     0.98800
O145        O  0.53261559  0.85981079  0.18879210    -0.81800
O146        O  0.50713443  0.87647978  0.19829238    -0.84400
C147        C  0.49903113  0.88633663  0.21444594     1.03200
O148        O  0.50162817  0.89095743  0.25403381    -0.77200
O149        O  0.54343045  0.91786256  0.26574680    -0.77400
C150        C  0.56268700  0.92493496  0.26980306     1.03200
Cr151      Cr  0.55623579  0.88193995  0.26903228     1.93700
Cr152      Cr  0.51188972  0.85699500  0.23330976     1.93200
Cr153      Cr  0.52310327  0.89261389  0.29610353     1.39100
O154        O  0.53036572  0.87714173  0.26618988    -1.22500
O155        O  0.55508186  0.89091262  0.83216267    -0.84700
O156        O  0.54049806  0.85383615  0.78873203    -0.81800
C157        C  0.52710379  0.83740354  0.77022025     0.98700
O158        O  0.51412117  0.83799860  0.74472768    -0.81800
O159        O  0.48623909  0.84456875  0.79188078    -0.84400
C160        C  0.47914735  0.85394746  0.81371572     1.03300
O161        O  0.48809624  0.87355778  0.81334543    -0.77200
O162        O  0.52455406  0.88498263  0.85465848    -0.77400
C163        C  0.54252033  0.88809027  0.86254104     1.03200
O164        O  0.56107298  0.91180328  0.74989407    -0.84700
O165        O  0.54888651  0.87534053  0.70676044    -0.81800
C166        C  0.53631351  0.87355528  0.67719082     0.98800
O167        O  0.51816867  0.86961751  0.68604555    -0.81800
O168        O  0.48859477  0.87375923  0.72823495    -0.84400
C169        C  0.49500582  0.89311543  0.72788197     1.03200
O170        O  0.51002149  0.90545633  0.75135745    -0.77200
O171        O  0.54600411  0.91989012  0.80041529    -0.77400
C172        C  0.56007587  0.92532958  0.77258096     1.03200
Cr173      Cr  0.54933654  0.88260291  0.76946931     1.93700
Cr174      Cr  0.50345413  0.85805782  0.74026366     1.93200
Cr175      Cr  0.51771368  0.89469970  0.80226108     1.39100
O176        O  0.52357136  0.87839073  0.77054514    -1.22500
O177        O  0.67264307  0.55445707  0.42840402    -0.84700
O178        O  0.69294603  0.55123892  0.35608297    -0.81800
C179        C  0.69361326  0.53479055  0.36367565     0.98700
O180        O  0.67707979  0.51744428  0.36520075    -0.81800
O181        O  0.63487815  0.48767600  0.36651067    -0.84400
C182        C  0.62825944  0.48601884  0.40458711     1.03300
O183        O  0.62934818  0.50164769  0.42310457    -0.77200
O184        O  0.63941199  0.54182694  0.44035561    -0.77400
C185        C  0.65780537  0.54938240  0.45449032     1.03200
O186        O  0.65066437  0.56916466  0.37532711    -0.84700
O187        O  0.66693453  0.56091233  0.30300585    -0.81800
C188        C  0.66999911  0.55025043  0.27538036     0.98800
O189        O  0.67080120  0.53429087  0.28698246    -0.81800
O190        O  0.62905456  0.50736094  0.29332998    -0.84400
C191        C  0.61078143  0.49914237  0.30764319     1.03200
O192        O  0.60766118  0.50137111  0.34672537    -0.77200
O193        O  0.62038269  0.54252255  0.35980936    -0.77400
C194        C  0.63190663  0.56187524  0.36381672     1.03200
Cr195      Cr  0.66942305  0.55710807  0.36554644     1.93700
Cr196      Cr  0.65281630  0.51303122  0.33059593     1.93200
Cr197      Cr  0.62596168  0.52254637  0.39043040     1.39100
O198        O  0.64935586  0.53081438  0.36231461    -1.22500
O199        O  0.66412628  0.55819255  0.92716929    -0.84700
O200        O  0.68855115  0.54559039  0.88585828    -0.81800
C201        C  0.69236429  0.53225515  0.86961784     0.98700
O202        O  0.67949008  0.51863941  0.84418676    -0.81800
O203        O  0.64421615  0.48994006  0.88761926    -0.84400
C204        C  0.62730650  0.48253451  0.90788121     1.03300
O205        O  0.61614291  0.49084758  0.90480249    -0.77200
O206        O  0.63907913  0.52741333  0.94750159    -0.77400
C207        C  0.65395180  0.54521606  0.95661800     1.03200
O208        O  0.65010129  0.56461065  0.84340937    -0.84700
O209        O  0.67595959  0.55359914  0.80280865    -0.81800
C210        C  0.66705273  0.54069661  0.77252559     0.98800
O211        O  0.65384387  0.52195382  0.77991238    -0.81800
O212        O  0.61895952  0.49156716  0.81882935    -0.84400
C213        C  0.60520298  0.49690143  0.81727961     1.03200
O214        O  0.60669223  0.51171834  0.83999957    -0.77200
O215        O  0.62554708  0.54784989  0.89016245    -0.77400
C216        C  0.63450951  0.56254725  0.86375033     1.03200
Cr217      Cr  0.66794619  0.55328354  0.86468598     1.93700
Cr218      Cr  0.64903836  0.50725348  0.83520557     1.93200
Cr219      Cr  0.62390510  0.52016584  0.89295183     1.39100
O220        O  0.64709306  0.52701086  0.86395359    -1.22500
O221        O  0.44204119  0.31981689  0.01949296    -0.84700
O222        O  0.44752935  0.30090369  0.09062938    -0.81800
C223        C  0.46418143  0.30071162  0.08253085     0.98700
O224        O  0.48126121  0.31761254  0.08160475    -0.81800
O225        O  0.50972284  0.35986399  0.07628644    -0.84400
C226        C  0.51080695  0.36554285  0.03754266     1.03300
O227        O  0.49489698  0.36397717  0.01936846    -0.77200
O228        O  0.45400214  0.35279037  0.00557926    -0.77400
C229        C  0.44614580  0.33417461  0.99283520     1.03200
O230        O  0.42769844  0.34192073  0.07257025    -0.84700
O231        O  0.43757517  0.32653519  0.14501937    -0.81800
C232        C  0.44883150  0.32398891  0.17205824     0.98800
O233        O  0.46527425  0.32440854  0.15971610    -0.81800
O234        O  0.49080626  0.36656596  0.14981309    -0.84400
C235        C  0.49848479  0.38452543  0.13379621     1.03200
O236        O  0.49585502  0.38664494  0.09440557    -0.77200
O237        O  0.45433079  0.37281134  0.08426760    -0.77400
C238        C  0.43499744  0.36112087  0.08021050     1.03200
Cr239      Cr  0.44058365  0.32378176  0.08212421     1.93700
Cr240      Cr  0.48534380  0.34219765  0.11437873     1.93200
Cr241      Cr  0.47411534  0.36724932  0.05318518     1.39100
O242        O  0.46671730  0.34439942  0.08306032    -1.22500
O243        O  0.44204166  0.31815993  0.52035802    -0.84700
O244        O  0.44707118  0.29984421  0.59314865    -0.81800
C245        C  0.46386206  0.29995392  0.58569314     0.98700
O246        O  0.48079560  0.31697277  0.58416207    -0.81800
O247        O  0.50906072  0.35958893  0.58079037    -0.84400
C248        C  0.51031069  0.36579892  0.54244924     1.03300
O249        O  0.49431253  0.36375935  0.52380949    -0.77200
O250        O  0.45346784  0.35111989  0.50669687    -0.77400
C251        C  0.44594969  0.33249371  0.49371575     1.03200
O252        O  0.42616116  0.33922009  0.57165341    -0.84700
O253        O  0.43598053  0.32499582  0.64495800    -0.81800
C254        C  0.44717702  0.32282976  0.67269715     0.98800
O255        O  0.46357277  0.32288978  0.66134461    -0.81800
O256        O  0.48884518  0.36489974  0.65361618    -0.84400
C257        C  0.49601379  0.38298715  0.63871553     1.03200
O258        O  0.49346606  0.38554596  0.59937919    -0.77200
O259        O  0.45184673  0.37020623  0.58638596    -0.77400
C260        C  0.43265283  0.35795500  0.58184892     1.03200
Cr261      Cr  0.43969629  0.32204309  0.58276677     1.93700
Cr262      Cr  0.48418926  0.34112408  0.61735296     1.93200
Cr263      Cr  0.47266266  0.36594222  0.55616344     1.39100
O264        O  0.46562166  0.34305844  0.58517352    -1.22500
O265        O  0.55198624  0.67018567  0.25747628    -0.84700
O266        O  0.53687838  0.69292288  0.29699665    -0.81800
C267        C  0.52377598  0.69654007  0.31479082     0.98700
O268        O  0.51062931  0.68343490  0.34044114    -0.81800
O269        O  0.48358830  0.64815486  0.29338482    -0.84400
C270        C  0.47686313  0.63120986  0.27326693     1.03300
O271        O  0.48542060  0.62029604  0.27802917    -0.77200
O272        O  0.52208384  0.64367566  0.23680807    -0.77400
C273        C  0.53952289  0.65912514  0.22774925     1.03200
O274        O  0.55878382  0.65764180  0.34286117    -0.84700
O275        O  0.54498210  0.68177055  0.38165788    -0.81800
C276        C  0.53210817  0.67183572  0.41146349     0.98800
O277        O  0.51406524  0.65731453  0.40276939    -0.81800
O278        O  0.48466099  0.62265215  0.36182154    -0.84400
C279        C  0.49132815  0.61006274  0.36706740     1.03200
O280        O  0.50681801  0.61232165  0.34583012    -0.77200
O281        O  0.54301037  0.63227898  0.29683294    -0.77400
C282        C  0.55758974  0.64226924  0.32312005     1.03200
Cr283      Cr  0.54609474  0.67387627  0.31979842     1.93700
Cr284      Cr  0.49993921  0.65291578  0.34716428     1.93200
Cr285      Cr  0.51486026  0.62900266  0.29187836     1.39100
O286        O  0.52045042  0.65208536  0.31971295    -1.22500
O287        O  0.54999914  0.68233265  0.75455213    -0.84700
O288        O  0.54480626  0.70165460  0.82514041    -0.81800
C289        C  0.52820872  0.70205400  0.81700439     0.98700
O290        O  0.51095007  0.68532214  0.81666275    -0.81800
O291        O  0.48180811  0.64284801  0.81162249    -0.84400
C292        C  0.48063069  0.63655965  0.77332601     1.03300
O293        O  0.49668250  0.63858082  0.75513645    -0.77200
O294        O  0.53726274  0.64926925  0.73941806    -0.77400
C295        C  0.54577999  0.66809799  0.72740384     1.03200
O296        O  0.56398687  0.65983542  0.80811518    -0.84700
O297        O  0.55399197  0.67500872  0.87974465    -0.81800
C298        C  0.54266905  0.67704945  0.90725924     0.98800
O299        O  0.52697876  0.67820091  0.89514102    -0.81800
O300        O  0.50042752  0.63613963  0.88538968    -0.84400
C301        C  0.49257622  0.61806792  0.86979166     1.03200
O302        O  0.49562966  0.61570987  0.83057561    -0.77200
O303        O  0.53709404  0.62910398  0.81908416    -0.77400
C304        C  0.55650689  0.64068315  0.81659762     1.03200
Cr305      Cr  0.55128250  0.67827900  0.81713303     1.93700
Cr306      Cr  0.50652478  0.66058643  0.84954670     1.93200
Cr307      Cr  0.51734384  0.63497674  0.78832963     1.39100
O308        O  0.52499181  0.65794303  0.81811413    -1.22500
O309        O  0.31640625  0.44672178  0.16050528    -0.84700
O310        O  0.29527580  0.45001695  0.09010310    -0.81800
C311        C  0.29479058  0.46651755  0.09804146     0.98700
O312        O  0.31153012  0.48375643  0.09856829    -0.81800
O313        O  0.35381385  0.51319216  0.10111292    -0.84400
C314        C  0.36095018  0.51441819  0.13877953     1.03300
O315        O  0.36053880  0.49876673  0.15542121    -0.77200
O316        O  0.34970150  0.45834830  0.17042039    -0.77400
C317        C  0.33147511  0.45094499  0.18541205     1.03200
O318        O  0.33719657  0.43140899  0.10629376    -0.84700
O319        O  0.32037587  0.44006205  0.03511162    -0.81800
C320        C  0.31768672  0.45102460  0.00761929     0.98800
O321        O  0.31754155  0.46735469  0.01927059    -0.81800
O322        O  0.35941169  0.49465230  0.02504343    -0.84400
C323        C  0.37780905  0.50226794  0.03853272     1.03200
O324        O  0.38108137  0.49931193  0.07718844    -0.77200
O325        O  0.36725377  0.45763828  0.08780420    -0.77400
C326        C  0.35572352  0.43842493  0.09375103     1.03200
Cr327      Cr  0.31874966  0.44396226  0.09769531     1.93700
Cr328      Cr  0.33571198  0.48834357  0.06351870     1.93200
Cr329      Cr  0.36284662  0.47785297  0.12062325     1.39100
O330        O  0.33913141  0.47017873  0.09402861    -1.22500
O331        O  0.31485288  0.44382686  0.65980635    -0.84700
O332        O  0.29708252  0.44994359  0.58695629    -0.81800
C333        C  0.29748736  0.46671862  0.59648879     0.98700
O334        O  0.31468099  0.48353830  0.59781796    -0.81800
O335        O  0.35744217  0.51096122  0.60263946    -0.84400
C336        C  0.36367924  0.51195426  0.64088985     1.03300
O337        O  0.36168121  0.49580988  0.65886279    -0.77200
O338        O  0.34764072  0.45434641  0.67379082    -0.77400
C339        C  0.32908384  0.44725454  0.68657714     1.03200
O340        O  0.33517029  0.42758465  0.60828993    -0.84700
O341        O  0.32213220  0.43861103  0.53434289    -0.81800
C342        C  0.32136857  0.45084394  0.50707273     0.98800
O343        O  0.32070817  0.46668906  0.51988984    -0.81800
O344        O  0.36292531  0.49134927  0.52896898    -0.84400
C345        C  0.38089405  0.49780660  0.54425152     1.03200
O346        O  0.38306250  0.49469937  0.58340382    -0.77200
O347        O  0.36656639  0.45270860  0.59385311    -0.77400
C348        C  0.35374000  0.43364789  0.59799209     1.03200
Cr349      Cr  0.31878642  0.44184495  0.59710654     1.93700
Cr350      Cr  0.33893404  0.48672674  0.56481681     1.93200
Cr351      Cr  0.36298509  0.47380972  0.62533126     1.39100
O352        O  0.34025862  0.46760418  0.59614544    -1.22500
O353        O  0.11767403  0.44599246  0.08511178    -0.84700
O354        O  0.14373476  0.45146487  0.15327096    -0.81800
C355        C  0.16051728  0.46809213  0.14487409     0.98700
O356        O  0.16105552  0.48534058  0.14461980    -0.81800
O357        O  0.14743315  0.51390371  0.14007623    -0.84400
C358        C  0.14178300  0.51465003  0.10194420     1.03300
O359        O  0.12672985  0.49873083  0.08540798    -0.77200
O360        O  0.09639052  0.45790804  0.07332732    -0.77400
C361        C  0.10677323  0.44978218  0.05940316     1.03200
O362        O  0.08298512  0.43248029  0.14237925    -0.84700
O363        O  0.10959487  0.44231563  0.21162989    -0.81800
C364        C  0.12363656  0.45386992  0.23792625     0.98800
O365        O  0.13968279  0.46993103  0.22432218    -0.81800
O366        O  0.12357149  0.49582690  0.21616871    -0.84400
C367        C  0.11381478  0.50435594  0.20166861     1.03200
O368        O  0.10749469  0.50115354  0.16310506    -0.77200
O369        O  0.07917795  0.45931448  0.15609824    -0.77400
C370        C  0.07172696  0.43992455  0.15431193     1.03200
Cr371      Cr  0.11394207  0.44494608  0.14822372     1.93700
Cr372      Cr  0.14134040  0.48982814  0.17888029     1.93200
Cr373      Cr  0.10357520  0.47856894  0.12161844     1.39100
O374        O  0.11973613  0.47118052  0.14924291    -1.22500
O375        O  0.12261081  0.44863885  0.58677203    -0.84700
O376        O  0.14764077  0.45392980  0.65676388    -0.81800
C377        C  0.16473804  0.47048193  0.64958050     0.98700
O378        O  0.16567107  0.48791312  0.64948355    -0.81800
O379        O  0.15287503  0.51716418  0.64386229    -0.84400
C380        C  0.14813271  0.51816142  0.60510733     1.03300
O381        O  0.13383336  0.50220477  0.58717380    -0.77200
O382        O  0.10274358  0.46197379  0.57311716    -0.77400
C383        C  0.11252166  0.45304781  0.56018773     1.03200
O384        O  0.08696021  0.43604965  0.64250773    -0.84700
O385        O  0.11291781  0.44531557  0.71286044    -0.81800
C386        C  0.12671834  0.45629009  0.74013357     0.98800
O387        O  0.14310647  0.47233901  0.72786584    -0.81800
O388        O  0.12753250  0.49866016  0.71797414    -0.84400
C389        C  0.11788304  0.50709421  0.70247239     1.03200
O390        O  0.11307542  0.50481041  0.66293323    -0.77200
O391        O  0.08417442  0.46368112  0.65299500    -0.77400
C392        C  0.07587721  0.44421374  0.65121874     1.03200
Cr393      Cr  0.11802969  0.44788091  0.64986925     1.93700
Cr394      Cr  0.14575090  0.49260529  0.68221156     1.93200
Cr395      Cr  0.10957964  0.48247142  0.62125427     1.39100
O396        O  0.12452872  0.47432026  0.65088125    -1.22500
O397        O  0.12469550  0.68445938  0.49385619    -0.84700
O398        O  0.15036792  0.70381044  0.42440970    -0.81800
C399        C  0.16678281  0.70375823  0.43539464     0.98700
O400        O  0.16678688  0.68680538  0.43741916    -0.81800
O401        O  0.15260793  0.64460162  0.44227024    -0.84400
C402        C  0.14643566  0.63814463  0.48004280     1.03300
O403        O  0.13151789  0.63949753  0.49570198    -0.77200
O404        O  0.10232887  0.65159234  0.50514271    -0.77400
C405        C  0.11383839  0.66983284  0.51955658     1.03200
O406        O  0.08935330  0.66355245  0.43661899    -0.84700
O407        O  0.11630595  0.67906674  0.36729348    -0.81800
C408        C  0.13047495  0.68144734  0.34145738     0.98800
O409        O  0.14616651  0.68071246  0.35531317    -0.81800
O410        O  0.12968855  0.63862949  0.36494859    -0.84400
C411        C  0.11893884  0.62052226  0.37990560     1.03200
O412        O  0.11220283  0.61795192  0.41801498    -0.77200
O413        O  0.08463252  0.63258529  0.42337969    -0.77400
C414        C  0.07742469  0.64473612  0.42591557     1.03200
Cr415      Cr  0.12051034  0.68123350  0.43054180     1.93700
Cr416      Cr  0.14726216  0.66264492  0.40226611     1.93200
Cr417      Cr  0.10885845  0.63719011  0.45835093     1.39100
O418        O  0.12556358  0.66029413  0.43037089    -1.22500
O419        O  0.12181331  0.68203077  0.99493735    -0.84700
O420        O  0.14683119  0.70144291  0.92470122    -0.81800
C421        C  0.16332038  0.70138806  0.93536590     0.98700
O422        O  0.16350181  0.68450573  0.93704389    -0.81800
O423        O  0.15014443  0.64232369  0.93885238    -0.84400
C424        C  0.14504198  0.63615628  0.97715362     1.03300
O425        O  0.13052938  0.63757809  0.99468726    -0.77200
O426        O  0.10105574  0.64894036  0.00867706    -0.77400
C427        C  0.11172232  0.66759657  0.02162717     1.03200
O428        O  0.08595117  0.66034920  0.94023924    -0.84700
O429        O  0.11179094  0.67581339  0.86883501    -0.81800
C430        C  0.12595556  0.67859741  0.84266407     0.98800
O431        O  0.14225998  0.67911292  0.85651696    -0.81800
O432        O  0.12595629  0.63702932  0.86358319    -0.84400
C433        C  0.11506209  0.61883070  0.87790348     1.03200
O434        O  0.10967985  0.61598257  0.91710240    -0.77200
O435        O  0.08199236  0.62959777  0.92746750    -0.77400
C436        C  0.07442946  0.64139519  0.93023925     1.03200
Cr437      Cr  0.11697523  0.67847917  0.93203343     1.93700
Cr438      Cr  0.14398891  0.66065825  0.90138494     1.93200
Cr439      Cr  0.10692315  0.63479139  0.95990167     1.39100
O440        O  0.12262538  0.65792879  0.93131468    -1.22500
O441        O  0.87555039  0.56470980  0.34747290    -0.84700
O442        O  0.84822411  0.55775803  0.41440665    -0.81800
C443        C  0.83186003  0.54108063  0.40391735     0.98700
O444        O  0.83206495  0.52417721  0.40288549    -0.81800
O445        O  0.84616816  0.49600764  0.40137204    -0.84400
C446        C  0.85203044  0.49564080  0.36348102     1.03300
O447        O  0.86688072  0.51188474  0.34763065    -0.77200
O448        O  0.89692837  0.55278902  0.33736261    -0.77400
C449        C  0.88653438  0.56072926  0.32245606     1.03200
O450        O  0.90958444  0.57808768  0.40782558    -0.84700
O451        O  0.88135851  0.56685926  0.47512267    -0.81800
C452        C  0.86662500  0.55504893  0.49981174     0.98800
O453        O  0.85120203  0.53889734  0.48479579    -0.81800
O454        O  0.86837656  0.51341351  0.47910555    -0.84400
C455        C  0.87916559  0.50587444  0.46495566     1.03200
O456        O  0.88575008  0.50951229  0.42660472    -0.77200
O457        O  0.91375319  0.55137815  0.42035455    -0.77400
C458        C  0.92116616  0.57076742  0.41856852     1.03200
Cr459      Cr  0.87831897  0.56499916  0.41133137     1.93700
Cr460      Cr  0.85109074  0.51965998  0.43979812     1.93200
Cr461      Cr  0.88962105  0.53201370  0.38507653     1.39100
O462        O  0.87302920  0.53889139  0.41202429    -1.22500
O463        O  0.86905513  0.55551820  0.84597718    -0.84700
O464        O  0.84722715  0.55332539  0.91958844    -0.81800
C465        C  0.82991286  0.53655926  0.91582355     0.98700
O466        O  0.82918897  0.51920609  0.91774093    -0.81800
O467        O  0.84186162  0.48972033  0.91344828    -0.84400
C468        C  0.84464531  0.48710746  0.87421965     1.03300
O469        O  0.85835455  0.50215189  0.85292070    -0.77200
O470        O  0.88858452  0.54196617  0.83099825    -0.77400
C471        C  0.87823205  0.55033013  0.81862706     1.03200
O472        O  0.90698683  0.57065768  0.89458356    -0.84700
O473        O  0.88466140  0.56429872  0.97016061    -0.81800
C474        C  0.87201828  0.55440193  0.00001271     0.98800
O475        O  0.85519639  0.53790573  0.99136785    -0.81800
O476        O  0.87065613  0.51124621  0.98224979    -0.84400
C477        C  0.88009201  0.50277385  0.96579935     1.03200
O478        O  0.88259519  0.50326445  0.92553485    -0.77200
O479        O  0.91074479  0.54374670  0.90821848    -0.77400
C480        C  0.91850588  0.56302924  0.90318900     1.03200
Cr481      Cr  0.87650035  0.55905798  0.90803851     1.93700
Cr482      Cr  0.85066473  0.51582014  0.94831516     1.93200
Cr483      Cr  0.88401767  0.52355776  0.88170048     1.39100
O484        O  0.87029793  0.53278269  0.91243740    -1.22500
O485        O  0.86930363  0.32650053  0.25534165    -0.84700
O486        O  0.84494973  0.30693836  0.18483079    -0.81800
C487        C  0.82854022  0.30767705  0.19173203     0.98700
O488        O  0.82849071  0.32460534  0.18966523    -0.81800
O489        O  0.84377144  0.36714920  0.19259590    -0.84400
C490        C  0.84878419  0.37338184  0.23101056     1.03300
O491        O  0.86253253  0.37103309  0.24979221    -0.77200
O492        O  0.89167006  0.35940133  0.26622870    -0.77400
C493        C  0.88015757  0.34125373  0.28086819     1.03200
O494        O  0.90566569  0.34641566  0.20080478    -0.84700
O495        O  0.88025236  0.33010560  0.12966915    -0.81800
C496        C  0.86686515  0.32768014  0.10164497     0.98800
O497        O  0.85115117  0.32908201  0.11229040    -0.81800
O498        O  0.86894039  0.37141379  0.11951601    -0.84400
C499        C  0.87933304  0.38955530  0.13443488     1.03200
O500        O  0.88417114  0.39231008  0.17382900    -0.77200
O501        O  0.91085472  0.37737426  0.18498027    -0.77400
C502        C  0.91760855  0.36490187  0.18842781     1.03200
Cr503      Cr  0.87469928  0.32895761  0.19236377     1.93700
Cr504      Cr  0.84953910  0.34811754  0.15608540     1.93200
Cr505      Cr  0.88616114  0.37326379  0.21667838     1.39100
O506        O  0.87002413  0.35005984  0.18850364    -1.22500
O507        O  0.88675692  0.33595251  0.75577900    -0.84700
O508        O  0.84965732  0.31285657  0.71404191    -0.81800
C509        C  0.83290164  0.30899498  0.69590737     0.98700
O510        O  0.83259104  0.32251759  0.67197953    -0.81800
O511        O  0.83792077  0.35518832  0.72543198    -0.84400
C512        C  0.84708603  0.37168014  0.74750129     1.03300
O513        O  0.86656229  0.38351533  0.74465285    -0.77200
O514        O  0.88369286  0.36209716  0.78130262    -0.77400
C515        C  0.88562768  0.34630964  0.78720230     1.03200
O516        O  0.90700767  0.35203896  0.67290431    -0.84700
O517        O  0.86998810  0.32816557  0.63067658    -0.81800
C518        C  0.86724526  0.33918767  0.60299612     0.98800
O519        O  0.86214789  0.35229900  0.61473002    -0.81800
O520        O  0.86328993  0.38384559  0.66125881    -0.84400
C521        C  0.88207612  0.39733815  0.65514098     1.03200
O522        O  0.89620732  0.39593499  0.67501423    -0.77200
O523        O  0.91543615  0.37721332  0.71910570    -0.77400
C524        C  0.92068194  0.36783988  0.69258338     1.03200
Cr525      Cr  0.87791251  0.33399119  0.69366648     1.93700
Cr526      Cr  0.85076981  0.35341387  0.67078195     1.93200
Cr527      Cr  0.88917027  0.37782540  0.72733291     1.39100
O528        O  0.87263704  0.35490272  0.69755746    -1.22500
C529        C  0.85752152  0.31687682  0.98157496    -0.13700
C530        C  0.87779068  0.32404331  0.96659551     0.16700
C531        C  0.89399733  0.33005910  0.99694277     0.03000
C532        C  0.88994437  0.33009222  0.04097034    -0.12200
C533        C  0.86983904  0.32402487  0.05579878    -0.03300
C534        C  0.85339284  0.31656533  0.02556379     0.02200
C535        C  0.88206314  0.32832806  0.91977622     0.09000
N536        N  0.91476092  0.33658874  0.98348398     0.65400
H537        H  0.90278614  0.33565186  0.06344710     0.18300
N538        N  0.83238281  0.30880034  0.03882155     0.75900
H539        H  0.84490068  0.31241554  0.95894414     0.09800
C540        C  0.87061860  0.31330250  0.88783653     0.03500
C541        C  0.87285574  0.31913300  0.84431848    -0.05200
C542        C  0.88620184  0.33982897  0.83195501    -0.23600
C543        C  0.89817941  0.35460497  0.86366065     0.12800
C544        C  0.89595777  0.34881905  0.90696433    -0.12700
N545        N  0.85628014  0.29221657  0.89914642     0.64400
H546        H  0.86346508  0.30764467  0.82034203     0.12300
N547        N  0.91268946  0.37563168  0.85235869     0.61100
H548        H  0.90454605  0.36067739  0.93086903     0.08400
O549        O  0.82410846  0.31998981  0.03447748    -0.40400
O550        O  0.82110518  0.28967393  0.04685891    -0.39600
O551        O  0.92886538  0.35522174  0.98918795    -0.39600
O552        O  0.91970198  0.32306543  0.97415754    -0.37300
O553        O  0.93091324  0.38037814  0.84162421    -0.38200
O554        O  0.90877285  0.38987624  0.86165384    -0.34300
O555        O  0.83704633  0.28502573  0.89344778    -0.35700
O556        O  0.86296604  0.27993175  0.90729508    -0.40000
C557        C  0.86261233  0.31970988  0.39417679    -0.13700
C558        C  0.87816254  0.33567035  0.41900851     0.16700
C559        C  0.89516547  0.35230098  0.39835933     0.03000
C560        C  0.89580007  0.35337208  0.35345223    -0.12200
C561        C  0.87980043  0.33791034  0.32814549    -0.03300
C562        C  0.86331785  0.32061034  0.34908673     0.02200
C563        C  0.87523456  0.33608148  0.46598553     0.09000
N564        N  0.91184482  0.36830552  0.42268243     0.65400
H565        H  0.90884309  0.36658775  0.33836883     0.18300
N566        N  0.84659326  0.30438794  0.32537498     0.75900
H567        H  0.84941885  0.30690629  0.40988905     0.09800
C568        C  0.86821356  0.34897512  0.48332441     0.03500
C569        C  0.86570979  0.34951941  0.52764232    -0.05200
C570        C  0.86977590  0.33713325  0.55593837    -0.23600
C571        C  0.87650694  0.32387521  0.53828214     0.12800
C572        C  0.87925311  0.32354717  0.49358588    -0.12700
N573        N  0.86297849  0.36122711  0.45613074     0.64400
H574        H  0.86035457  0.35972311  0.53975053     0.12300
N575        N  0.88048499  0.31056582  0.56492860     0.61100
H576        H  0.88450023  0.31344973  0.48035985     0.08400
O577        O  0.83050639  0.30557240  0.31780368    -0.40400
O578        O  0.84603735  0.28723016  0.32044665    -0.39600
O579        O  0.92586209  0.36514857  0.43753221    -0.39600
O580        O  0.91468960  0.38655622  0.42223767    -0.37300
O581        O  0.86588694  0.29247065  0.57320126    -0.38200
O582        O  0.89899734  0.31515898  0.57251093    -0.34300
O583        O  0.84479198  0.35331214  0.44109659    -0.35700
O584        O  0.87470241  0.38070997  0.45511890    -0.40000
C585        C  0.88888697  0.47529641  0.06014411    -0.13700
C586        C  0.89414034  0.46201526  0.03824271     0.16700
C587        C  0.89719815  0.46412027  0.99349549     0.03000
C588        C  0.89355091  0.47826329  0.97110471    -0.12200
C589        C  0.88686734  0.49061741  0.99238047    -0.03300
C590        C  0.88540295  0.48966401  0.03772648     0.02200
C591        C  0.89256646  0.44374681  0.06085166     0.09000
N592        N  0.90310392  0.45129258  0.97006411     0.65400
H593        H  0.89522120  0.47890494  0.93646707     0.18300
N594        N  0.87984025  0.50265886  0.06144162     0.75900
H595        H  0.88627870  0.47370101  0.09451934     0.09800
C596        C  0.90370937  0.44560457  0.09883787     0.03500
C597        C  0.89973126  0.42770197  0.12149759    -0.05200
C598        C  0.88472880  0.40780536  0.10695267    -0.23600
C599        C  0.87398236  0.40601845  0.06824616     0.12800
C600        C  0.87788185  0.42390115  0.04593424    -0.12700
N601        N  0.91899605  0.46551178  0.11489114     0.64400
H602        H  0.90824245  0.42944044  0.15099806     0.12300
N603        N  0.85806552  0.38632529  0.05253875     0.61100
H604        H  0.86867739  0.42227361  0.01758674     0.08400
O605        O  0.86133074  0.49549156  0.07382962    -0.40400
O606        O  0.89397239  0.51953757  0.07706687    -0.39600
O607        O  0.89044484  0.43787906  0.94400875    -0.39600
O608        O  0.92191622  0.45588259  0.96958931    -0.37300
O609        O  0.83939139  0.37971217  0.06306178    -0.38200
O610        O  0.86218539  0.37721562  0.02316138    -0.34300
O611        O  0.91518080  0.47274282  0.14817712    -0.35700
O612        O  0.93744723  0.47363226  0.10148555    -0.40000
C613        C  0.82981975  0.44227688  0.79633461    -0.13700
C614        C  0.82291654  0.42539712  0.82471285     0.16700
C615        C  0.81987054  0.42850611  0.86830930     0.03000
C616        C  0.82543951  0.44851052  0.88316940    -0.12200
C617        C  0.83387945  0.46573846  0.85528506    -0.03300
C618        C  0.83490825  0.46216207  0.81094055     0.02200
C619        C  0.82347549  0.40649060  0.81000888     0.09000
N620        N  0.81206333  0.41169299  0.89834362     0.65400
H621        H  0.82419710  0.45068244  0.91717760     0.18300
N622        N  0.84187423  0.47865857  0.78033472     0.75900
H623        H  0.83255915  0.44041537  0.76299157     0.09800
C624        C  0.81507590  0.39675456  0.76999152     0.03500
C625        C  0.82106792  0.38316806  0.75196136    -0.05200
C626        C  0.83540860  0.37916223  0.77303932    -0.23600
C627        C  0.84229245  0.38734442  0.81449172     0.12800
C628        C  0.83640865  0.40091160  0.83249156    -0.12700
N629        N  0.80150182  0.40148030  0.74601020     0.64400
H630        H  0.81582923  0.37712379  0.71991200     0.12300
N631        N  0.85669638  0.38338142  0.83723510     0.61100
H632        H  0.84347051  0.40843989  0.86254849     0.08400
O633        O  0.85739283  0.48290519  0.75707130    -0.40400
O634        O  0.83009305  0.48571912  0.77029551    -0.39600
O635        O  0.82313113  0.41244800  0.92990703    -0.39600
O636        O  0.79306276  0.39799834  0.89745668    -0.37300
O637        O  0.84997186  0.36773792  0.86154374    -0.38200
O638        O  0.87553059  0.39741976  0.83959602    -0.34300
O639        O  0.80705892  0.40996391  0.70959706    -0.35700
O640        O  0.78270776  0.39347361  0.75701606    -0.40000
C641        C  0.85235133  0.55025497  0.61854512    -0.13700
C642        C  0.87158187  0.56409973  0.63709434     0.16700
C643        C  0.88856896  0.57651662  0.61014971     0.03000
C644        C  0.88636587  0.57421768  0.56540009    -0.12200
C645        C  0.86740595  0.55947631  0.54666927    -0.03300
C646        C  0.85008422  0.54780102  0.57392443     0.02200
C647        C  0.87439886  0.56259397  0.68390520     0.09000
N648        N  0.90837473  0.59101426  0.62791470     0.65400
H649        H  0.89982408  0.58338450  0.54544442     0.18300
N650        N  0.83029324  0.53255684  0.55724776     0.75900
H651        H  0.83931040  0.54031925  0.63884547     0.09800
C652        C  0.86243580  0.56576089  0.71481497     0.03500
C653        C  0.86415368  0.56199369  0.75841795    -0.05200
C654        C  0.87726812  0.55439988  0.77194257    -0.23600
C655        C  0.88897505  0.55084526  0.74041839     0.12800
C656        C  0.88763714  0.55527387  0.69716118    -0.12700
N657        N  0.84828210  0.57263063  0.70252513     0.64400
H658        H  0.85505331  0.56469290  0.78125468     0.12300
N659        N  0.90172253  0.54198837  0.75085068     0.61100
H660        H  0.89616471  0.55194264  0.67352880     0.08400
O661        O  0.81614649  0.53712069  0.55262252    -0.40400
O662        O  0.82570498  0.51373202  0.55566290    -0.39600
O663        O  0.92318862  0.58729175  0.62587308    -0.39600
O664        O  0.91194568  0.60885522  0.63910550    -0.37300
O665        O  0.89313582  0.52291805  0.76011620    -0.38200
O666        O  0.92053444  0.55130965  0.73949931    -0.34300
O667        O  0.82901656  0.55981600  0.70197249    -0.35700
O668        O  0.85455703  0.59186132  0.70085421    -0.40000
C669        C  0.89886477  0.57184461  0.10904084    -0.13700
C670        C  0.88187261  0.56680942  0.13620226     0.16700
C671        C  0.86232862  0.56059032  0.11726473     0.03000
C672        C  0.85972387  0.55773675  0.07259215    -0.12200
C673        C  0.87642121  0.56148746  0.04563631    -0.03300
C674        C  0.89635128  0.56939813  0.06419532     0.02200
C675        C  0.88442443  0.56663106  0.18395374     0.09000
N676        N  0.84467148  0.55601478  0.14311759     0.65400
H677        H  0.84433900  0.55188722  0.05902418     0.18300
N678        N  0.91388038  0.57340410  0.03849209     0.75900
H679        H  0.91410613  0.57714997  0.12283924     0.09800
C680        C  0.89192910  0.55436011  0.20291918     0.03500
C681        C  0.89320051  0.55343577  0.24771377    -0.05200
C682        C  0.88698366  0.56443305  0.27507026    -0.23600
C683        C  0.88014874  0.57733236  0.25611756     0.12800
C684        C  0.87889607  0.57827986  0.21103405    -0.12700
N685        N  0.89712226  0.54164663  0.17720199     0.64400
H686        H  0.89834453  0.54327577  0.26109797     0.12300
N687        N  0.87482085  0.58988979  0.28198459     0.61100
H688        H  0.87363430  0.58823500  0.19712025     0.08400
O689        O  0.92530577  0.59138412  0.02339833    -0.40400
O690        O  0.92030958  0.56054890  0.03857215    -0.39600
O691        O  0.83839543  0.56897639  0.14527857    -0.39600
O692        O  0.83331163  0.53781032  0.15717198    -0.37300
O693        O  0.88897968  0.60741150  0.29500941    -0.38200
O694        O  0.85607463  0.58538370  0.28470262    -0.34300
O695        O  0.91597500  0.54700763  0.17159992    -0.35700
O696        O  0.88320868  0.52331664  0.16814748    -0.40000
C697        C  0.88988289  0.46288880  0.50114469    -0.13700
C698        C  0.88751447  0.46305735  0.54580577     0.16700
C699        C  0.88370000  0.47825648  0.56403711     0.03000
C700        C  0.88148528  0.49234126  0.53742191    -0.12200
C701        C  0.88312226  0.49172482  0.49246210    -0.03300
C702        C  0.88761858  0.47685580  0.47447866     0.02200
C703        C  0.88751023  0.44628952  0.57222185     0.09000
N704        N  0.88113303  0.47900922  0.60936983     0.65400
H705        H  0.87812810  0.50360302  0.55204287     0.18300
N706        N  0.88864834  0.47477943  0.42902638     0.75900
H707        H  0.89290007  0.45136396  0.48667515     0.09800
C708        C  0.87272633  0.42525577  0.56442003     0.03500
C709        C  0.87222804  0.40970623  0.59049570    -0.05200
C710        C  0.88627602  0.41443821  0.62473018    -0.23600
C711        C  0.90192924  0.43532914  0.63103902     0.12800
C712        C  0.90229616  0.45109682  0.60509881    -0.12700
N713        N  0.85734819  0.41945765  0.53147197     0.64400
H714        H  0.86023890  0.39373796  0.58462951     0.12300
N715        N  0.91703841  0.44086796  0.66438421     0.61100
H716        H  0.91408622  0.46714069  0.61076224     0.08400
O717        O  0.87220513  0.46342480  0.40814794    -0.40400
O718        O  0.90605354  0.48117479  0.41124367    -0.39600
O719        O  0.89595686  0.49245571  0.63176274    -0.39600
O720        O  0.86319939  0.46900332  0.62550349    -0.37300
O721        O  0.93433149  0.44230301  0.65597615    -0.38200
O722        O  0.91463559  0.44785296  0.69957526    -0.34300
O723        O  0.85904070  0.41127886  0.49726589    -0.35700
O724        O  0.84023469  0.41836151  0.54018890    -0.40000
C725        C  0.82877137  0.41109901  0.24723715    -0.13700
C726        C  0.83619420  0.41838946  0.28874497     0.16700
C727        C  0.84429567  0.40815325  0.31354413     0.03000
C728        C  0.84643802  0.39207974  0.29529757    -0.12200
C729        C  0.84085953  0.38603147  0.25223641    -0.03300
C730        C  0.83104388  0.39512357  0.22876149     0.02200
C731        C  0.83724809  0.43781784  0.30419460     0.09000
N732        N  0.85226929  0.41518585  0.35585409     0.65400
H733        H  0.85379704  0.38527892  0.31419351     0.18300
N734        N  0.82475849  0.38956936  0.18506549     0.75900
H735        H  0.82210857  0.41856438  0.22826089     0.09800
C736        C  0.84892639  0.45671363  0.28184129     0.03500
C737        C  0.85189395  0.47529926  0.29975672    -0.05200
C738        C  0.84349821  0.47554020  0.34004644    -0.23600
C739        C  0.83007848  0.45629774  0.36032435     0.12800
C740        C  0.82734056  0.43773186  0.34252336    -0.12700
N741        N  0.85932008  0.45754618  0.24263022     0.64400
H742        H  0.86201597  0.48973831  0.28328688     0.12300
N743        N  0.81986588  0.45535490  0.39992769     0.61100
H744        H  0.81770587  0.42319729  0.35909708     0.08400
O745        O  0.83659203  0.40059299  0.15517135    -0.40400
O746        O  0.80612885  0.37624223  0.17666797    -0.39600
O747        O  0.84106964  0.40603290  0.38797967    -0.39600
O748        O  0.87152022  0.42725611  0.36107525    -0.37300
O749        O  0.80619595  0.46073072  0.40111645    -0.38200
O750        O  0.82378062  0.44824324  0.43329344    -0.34300
O751        O  0.85275873  0.46073252  0.20762970    -0.35700
O752        O  0.87689401  0.45877751  0.24387786    -0.40000
C753        C  0.01796840  0.62683432  0.94548736    -0.13700
C754        C  0.00806307  0.61071975  0.91535458     0.16700
C755        C  0.02024274  0.60600166  0.88791466     0.03000
C756        C  0.04189226  0.61669407  0.89238485    -0.12200
C757        C  0.05182287  0.63241069  0.92339051    -0.03300
C758        C  0.03967946  0.63777248  0.94953033     0.02200
C759        C  0.98504263  0.59898549  0.91296855     0.09000
N760        N  0.01080944  0.58985234  0.85646078     0.65400
H761        H  0.05099141  0.61243709  0.87191971     0.18300
N762        N  0.04900666  0.65339484  0.98201305     0.75900
H763        H  0.00876765  0.63080712  0.96628507     0.09800
C764        C  0.97291680  0.58700935  0.94790194     0.03500
C765        C  0.95123036  0.57561596  0.94418591    -0.05200
C766        C  0.94124842  0.57649388  0.90662137    -0.23600
C767        C  0.95333798  0.58873882  0.87190214     0.12800
C768        C  0.97508476  0.59973176  0.87522225    -0.12700
N769        N  0.98242180  0.58576657  0.98691441     0.64400
H770        H  0.94217300  0.56589313  0.97054271     0.12300
N771        N  0.94390578  0.58908987  0.83209814     0.61100
H772        H  0.98423714  0.60891441  0.84824902     0.08400
O773        O  0.04952296  0.64807458  0.02027777    -0.40400
O774        O  0.05256300  0.67158341  0.97436862    -0.39600
O775        O  0.01106448  0.59456804  0.81742271    -0.39600
O776        O  0.00610207  0.57151947  0.86631418    -0.37300
O777        O  0.93651853  0.60105886  0.82787005    -0.38200
O778        O  0.94728560  0.58137180  0.79906446    -0.34300
O779        O  0.98286779  0.59637216  0.01904098    -0.35700
O780        O  0.98647038  0.57127239  0.99183230    -0.40000
C781        C  0.01984329  0.60874586  0.40150737    -0.13700
C782        C  0.01092325  0.61959246  0.42046514     0.16700
C783        C  0.02407471  0.63953667  0.43780575     0.03000
C784        C  0.04574083  0.64796024  0.43688892    -0.12200
C785        C  0.05469760  0.63661749  0.42000414    -0.03300
C786        C  0.04141767  0.61695626  0.40118392     0.02200
C787        C  0.98789009  0.60893954  0.42409399     0.09000
N788        N  0.01570210  0.65068676  0.45959651     0.65400
H789        H  0.05550583  0.66296023  0.45186687     0.18300
N790        N  0.04947632  0.60490445  0.38214106     0.75900
H791        H  0.00989406  0.59347996  0.38772539     0.09800
C792        C  0.97583360  0.61584824  0.40201455     0.03500
C793        C  0.95402579  0.60391312  0.40314000    -0.05200
C794        C  0.94388575  0.58481880  0.42512069    -0.23600
C795        C  0.95604384  0.57851241  0.44890262     0.12800
C796        C  0.97776934  0.59054224  0.44813537    -0.12700
N797        N  0.98540746  0.63392817  0.37538536     0.64400
H798        H  0.94505128  0.60895147  0.38429544     0.12300
N799        N  0.94660470  0.55987710  0.47389101     0.61100
H800        H  0.98686279  0.58523404  0.46575959     0.08400
O801        O  0.05268924  0.60602324  0.34217500    -0.40400
O802        O  0.04944764  0.59039058  0.40334191    -0.39600
O803        O  0.00832744  0.64511377  0.49686258    -0.39600
O804        O  0.01966701  0.66830118  0.44590680    -0.37300
O805        O  0.94700863  0.54400625  0.46059100    -0.38200
O806        O  0.94149761  0.56050923  0.51227743    -0.34300
O807        O  0.99208751  0.63278115  0.33881277    -0.35700
O808        O  0.98303344  0.64923540  0.38405927    -0.40000
C809        C  0.12735052  0.69523708  0.63099189    -0.13700
C810        C  0.11821895  0.67759355  0.65747463     0.16700
C811        C  0.10706962  0.65777132  0.63858472     0.03000
C812        C  0.10533023  0.65578201  0.59389897    -0.12200
C813        C  0.11465040  0.67332461  0.56687643    -0.03300
C814        C  0.12558497  0.69329850  0.58602088     0.02200
C815        C  0.12061032  0.67988923  0.70479666     0.09000
N816        N  0.09828117  0.63940930  0.66438159     0.65400
H817        H  0.09708494  0.64025825  0.58040295     0.18300
N818        N  0.13475150  0.71175851  0.56051665     0.75900
H819        H  0.13584139  0.71056866  0.64532457     0.09800
C820        C  0.13992911  0.68631185  0.72454460     0.03500
C821        C  0.14146294  0.68682645  0.76939553    -0.05200
C822        C  0.12391983  0.68088618  0.79558987    -0.23600
C823        C  0.10469657  0.67532680  0.77555091     0.12800
C824        C  0.10320797  0.67477501  0.73051712    -0.12700
N825        N  0.15788767  0.69114281  0.69946205     0.64400
H826        H  0.15641070  0.69120833  0.78367000     0.12300
N827        N  0.08638800  0.66952762  0.80019202     0.61100
H828        H  0.08831302  0.66999247  0.71551882     0.08400
O829        O  0.15406572  0.72122909  0.55353377    -0.40400
O830        O  0.12431482  0.72045047  0.55148416    -0.39600
O831        O  0.07910116  0.63007046  0.67273467    -0.39600
O832        O  0.10868809  0.63051309  0.67171850    -0.37300
O833        O  0.08167542  0.68316160  0.81006119    -0.38200
O834        O  0.07315763  0.65053268  0.80503103    -0.34300
O835        O  0.17211352  0.70983021  0.69547401    -0.35700
O836        O  0.16113887  0.67671518  0.68780580    -0.40000
C837        C  0.14152344  0.69002056  0.22098414    -0.13700
C838        C  0.12196984  0.68522283  0.20481013     0.16700
C839        C  0.10583376  0.68095512  0.23411008     0.03000
C840        C  0.10920508  0.68068948  0.27840137    -0.12200
C841        C  0.12852039  0.68460006  0.29467401    -0.03300
C842        C  0.14497852  0.68986605  0.26527166     0.02200
C843        C  0.11801530  0.68194736  0.15768103     0.09000
N844        N  0.08578434  0.67650972  0.21932427     0.65400
H845        H  0.09635057  0.67675644  0.30003934     0.18300
N846        N  0.16518473  0.69457007  0.27951833     0.75900
H847        H  0.15400101  0.69297423  0.19901556     0.09800
C848        C  0.13060952  0.69709015  0.12720853     0.03500
C849        C  0.12783346  0.69230616  0.08319122    -0.05200
C850        C  0.11269991  0.67249522  0.06840405    -0.23600
C851        C  0.09977561  0.65751978  0.09910733     0.12800
C852        C  0.10262059  0.66235264  0.14299916    -0.12700
N853        N  0.14638319  0.71737304  0.14040728     0.64400
H854        H  0.13796735  0.70410965  0.06055781     0.12300
N855        N  0.08387026  0.63716075  0.08666910     0.61100
H856        H  0.09317437  0.65033853  0.16591530     0.08400
O857        O  0.17912616  0.71329842  0.28480880    -0.40400
O858        O  0.17014856  0.68059076  0.27864030    -0.39600
O859        O  0.07051415  0.65830958  0.22282074    -0.39600
O860        O  0.08259543  0.69132837  0.21094574    -0.37300
O861        O  0.08786109  0.62250569  0.08598241    -0.38200
O862        O  0.06515914  0.63290022  0.08687101    -0.34300
O863        O  0.16527313  0.72257325  0.13620576    -0.35700
O864        O  0.14159701  0.73120648  0.14753053    -0.40000
C865        C  0.97361075  0.38263108  0.64370293    -0.13700
C866        C  0.98683396  0.39286058  0.67862179     0.16700
C867        C  0.97812394  0.39367135  0.71813893     0.03000
C868        C  0.95659345  0.38497200  0.72192925    -0.12200
C869        C  0.94325143  0.37547046  0.68667584    -0.03300
C870        C  0.95193697  0.37411561  0.64719280     0.02200
C871        C  0.00961029  0.40547799  0.67179272     0.09000
N872        N  0.99108821  0.40391894  0.75439230     0.65400
H873        H  0.95029436  0.38596484  0.75267645     0.18300
N874        N  0.93932679  0.36589392  0.60951959     0.75900
H875        H  0.98027135  0.38244811  0.61284603     0.09800
C876        C  0.02249757  0.39660380  0.66992718     0.03500
C877        C  0.04397776  0.40934006  0.66306973    -0.05200
C878        C  0.05298765  0.43103017  0.65817385    -0.23600
C879        C  0.03978574  0.43976342  0.65989014     0.12800
C880        C  0.01843589  0.42698454  0.66673863    -0.12700
N881        N  0.01404441  0.37477142  0.67597728     0.64400
H882        H  0.05364929  0.40221438  0.66207930     0.12300
N883        N  0.04760337  0.46151402  0.65363169     0.61100
H884        H  0.00857962  0.43391858  0.66777673     0.08400
O885        O  0.94027781  0.35204083  0.58773041    -0.40400
O886        O  0.93043415  0.37511680  0.59376100    -0.39600
O887        O  0.99462139  0.42182026  0.76498510    -0.39600
O888        O  0.99619549  0.39387316  0.77952526    -0.37300
O889        O  0.04758789  0.46827093  0.61643090    -0.38200
O890        O  0.05110492  0.47321960  0.68574123    -0.34300
O891        O  0.01143587  0.36321936  0.64404719    -0.35700
O892        O  0.01214347  0.36759734  0.71348867    -0.40000
C893        C  0.15596426  0.55996624  0.52479611    -0.13700
C894        C  0.16497306  0.57773347  0.55116531     0.16700
C895        C  0.17145870  0.57618465  0.59293859     0.03000
C896        C  0.16750463  0.55684296  0.60861991    -0.12200
C897        C  0.15704468  0.53871596  0.58339047    -0.03300
C898        C  0.15221949  0.54065568  0.54023110     0.02200
C899        C  0.16440989  0.59657926  0.53668827     0.09000
N900        N  0.18132672  0.59396170  0.62050880     0.65400
H901        H  0.17160075  0.55590637  0.64156919     0.18300
N902        N  0.14260660  0.52305167  0.51213023     0.75900
H903        H  0.15065914  0.56074994  0.49287685     0.09800
C904        C  0.17194515  0.60553884  0.49605449     0.03500
C905        C  0.16732169  0.62036419  0.47981169    -0.05200
C906        C  0.15502885  0.62649974  0.50312608    -0.23600
C907        C  0.14877946  0.61863683  0.54518756     0.12800
C908        C  0.15335038  0.60371226  0.56133002    -0.12700
N909        N  0.18362660  0.59914605  0.47005123     0.64400
H910        H  0.17250342  0.62621549  0.44772209     0.12300
N911        N  0.13699427  0.62486268  0.57131461     0.61100
H912        H  0.14716971  0.59682479  0.59227505     0.08400
O913        O  0.15383217  0.51856214  0.48922354    -0.40400
O914        O  0.12339286  0.51459067  0.50428109    -0.39600
O915        O  0.17213848  0.59471391  0.65396755    -0.39600
O916        O  0.20042955  0.60680079  0.61587407    -0.37300
O917        O  0.14632727  0.64008588  0.59664134    -0.38200
O918        O  0.11762514  0.61299897  0.57497085    -0.34300
O919        O  0.17587770  0.58940124  0.43546723    -0.35700
O920        O  0.20283237  0.60681616  0.47696887    -0.40000
C921        C  0.11191436  0.58547342  0.78176296    -0.13700
C922        C  0.10519322  0.56612109  0.80149296     0.16700
C923        C  0.09990448  0.56387014  0.84548078     0.03000
C924        C  0.10246401  0.58101922  0.86920963    -0.12200
C925        C  0.10994491  0.60061046  0.84996074    -0.03300
C926        C  0.11394085  0.60252615  0.80525356     0.02200
C927        C  0.10636239  0.54940364  0.77731263     0.09000
N928        N  0.09213367  0.54429129  0.86672340     0.65400
H929        H  0.09900043  0.57900275  0.90323854     0.18300
N930        N  0.12016847  0.62164463  0.78316550     0.75900
H931        H  0.11629917  0.58761800  0.74821593     0.09800
C932        C  0.09769059  0.54300773  0.73589242     0.03500
C933        C  0.10122277  0.52889453  0.71256164    -0.05200
C934        C  0.11321343  0.52073577  0.72974448    -0.23600
C935        C  0.12142098  0.52677966  0.77174888     0.12800
C936        C  0.11813477  0.54110333  0.79466348    -0.12700
N937        N  0.08517201  0.55060136  0.71709333     0.64400
H938        H  0.09459665  0.52441933  0.68065744     0.12300
N939        N  0.13388745  0.51927495  0.79116022     0.61100
H940        H  0.12550075  0.54631531  0.82576269     0.08400
O941        O  0.10655793  0.62595851  0.77078146    -0.40400
O942        O  0.13868568  0.63259435  0.77051190    -0.39600
O943        O  0.10259639  0.54236230  0.89655317    -0.39600
O944        O  0.07341956  0.53036861  0.86131082    -0.37300
O945        O  0.15342921  0.52982612  0.78827115    -0.38200
O946        O  0.12569193  0.50421862  0.81707449    -0.34300
O947        O  0.09171644  0.56226366  0.68455592    -0.35700
O948        O  0.06627700  0.54244265  0.72743270    -0.40000
C949        C  0.97266657  0.39624587  0.14632587    -0.13700
C950        C  0.98314728  0.38938957  0.17326196     0.16700
C951        C  0.97187895  0.37351382  0.20322719     0.03000
C952        C  0.95030231  0.36493940  0.20637406    -0.12200
C953        C  0.93985005  0.37238583  0.18061264    -0.03300
C954        C  0.95119117  0.38796797  0.14983938     0.02200
C955        C  0.00603810  0.40052377  0.17214458     0.09000
N956        N  0.98229407  0.36671707  0.23199954     0.65400
H957        H  0.94186570  0.35313483  0.23041782     0.18300
N958        N  0.94113296  0.39556123  0.12197511     0.75900
H959        H  0.98131767  0.40850088  0.12324129     0.09800
C960        C  0.01692848  0.39476497  0.14351314     0.03500
C961        C  0.03851319  0.40732238  0.13955077    -0.05200
C962        C  0.04940977  0.42587283  0.16321816    -0.23600
C963        C  0.03845117  0.43121906  0.19288761     0.12800
C964        C  0.01693422  0.41850342  0.19714925    -0.12700
N965        N  0.00613786  0.37677259  0.11686010     0.64400
H966        H  0.04662884  0.40302254  0.11643151     0.12300
N967        N  0.04889311  0.44955160  0.21872010     0.61100
H968        H  0.00857129  0.42300532  0.21920252     0.08400
O969        O  0.93407768  0.38680027  0.08621465    -0.40400
O970        O  0.94233091  0.41282154  0.12983859    -0.39600
O971        O  0.98761273  0.37482988  0.26883464    -0.39600
O972        O  0.98328062  0.35062138  0.22325707    -0.37300
O973        O  0.05525541  0.44844268  0.25571688    -0.38200
O974        O  0.04790174  0.46548133  0.20843385    -0.34300
O975        O  0.00168761  0.37875311  0.07864186    -0.35700
O976        O  0.00441606  0.35973111  0.12880189    -0.40000
C977        C  0.15071867  0.55665871  0.02078675    -0.13700
C978        C  0.16234129  0.57472803  0.04545148     0.16700
C979        C  0.16973638  0.57295072  0.08609947     0.03000
C980        C  0.16420155  0.55326182  0.10247491    -0.12200
C981        C  0.15123285  0.53500120  0.07913991    -0.03300
C982        C  0.14530401  0.53697411  0.03693276     0.02200
C983        C  0.16315550  0.59429372  0.03130596     0.09000
N984        N  0.18222149  0.59093506  0.11187639     0.65400
H985        H  0.16925071  0.55231086  0.13462475     0.18300
N986        N  0.13275499  0.51915552  0.01081629     0.75900
H987        H  0.14459432  0.55762857  0.98984087     0.09800
C988        C  0.16921795  0.60212200  0.98933133     0.03500
C989        C  0.16476024  0.61716066  0.97354744    -0.05200
C990        C  0.15422062  0.62469708  0.99884283    -0.23600
C991        C  0.14990309  0.61822583  0.04217215     0.12800
C992        C  0.15416627  0.60301308  0.05774303    -0.12700
N993        N  0.17908209  0.59427812  0.96164286     0.64400
H994        H  0.16852608  0.62200374  0.94042917     0.12300
N995        N  0.14019384  0.62605947  0.07027821     0.61100
H996        H  0.14917889  0.59707020  0.08985935     0.08400
O997        O  0.14138206  0.51279672  0.98477361    -0.40400
O998        O  0.11351574  0.51257526  0.00748793    -0.39600
O999        O  0.17501499  0.59355218  0.14654238    -0.39600
O1000       O  0.20147201  0.60165445  0.10468275    -0.37300
O1001       O  0.12167966  0.61422949  0.08202684    -0.38200
O1002       O  0.15125581  0.64291380  0.09015062    -0.34300
O1003       O  0.16964849  0.58395586  0.92863106    -0.35700
O1004       O  0.19834190  0.60107532  0.96541946    -0.40000
C1005       C  0.10037078  0.54491924  0.24151129    -0.13700
C1006       C  0.11322198  0.55258396  0.27785538     0.16700
C1007       C  0.12496412  0.54332418  0.29053513     0.03000
C1008       C  0.12406872  0.52701846  0.26636909    -0.12200
C1009       C  0.11182107  0.51973460  0.22892200    -0.03300
C1010       C  0.09959800  0.52869340  0.21695118     0.02200
C1011       C  0.11371710  0.56977282  0.30308519     0.09000
N1012       N  0.13866387  0.55096842  0.32674535     0.65400
H1013       H  0.13373010  0.52062000  0.27624759     0.18300
N1014       N  0.08613307  0.52143155  0.18039156     0.75900
H1015       H  0.09084434  0.55155195  0.23218145     0.09800
C1016       C  0.11976423  0.58927586  0.28443966     0.03500
C1017       C  0.12053836  0.60529728  0.30958650    -0.05200
C1018       C  0.11551414  0.60236969  0.35354289    -0.23600
C1019       C  0.10893704  0.58255928  0.37184867     0.12800
C1020       C  0.10800647  0.56653341  0.34649024    -0.12700
N1021       N  0.12615796  0.59337624  0.24054159     0.64400
H1022       H  0.12567054  0.62029274  0.29475989     0.12300
N1023       N  0.10391395  0.57857269  0.41642566     0.61100
H1024       H  0.10301037  0.55149114  0.36096196     0.08400
O1025       O  0.09236830  0.53081562  0.14501221    -0.40400
O1026       O  0.06696073  0.50914334  0.18583155    -0.39600
O1027       O  0.13415777  0.54021565  0.36057678    -0.39600
O1028       O  0.15680774  0.56617454  0.32206581    -0.37300
O1029       O  0.08514150  0.56980211  0.42800037    -0.38200
O1030       O  0.11761107  0.58019749  0.44274011    -0.34300
O1031       O  0.11441340  0.59483041  0.21309161    -0.35700
O1032       O  0.14482257  0.59938847  0.23096428    -0.40000
C1033       C  0.09543272  0.44487433  0.93864078    -0.13700
C1034       C  0.11087332  0.44094808  0.92297670     0.16700
C1035       C  0.12370310  0.43824567  0.95277669     0.03000
C1036       C  0.12151458  0.44038170  0.99690738    -0.12200
C1037       C  0.10661143  0.44512677  0.01266289    -0.03300
C1038       C  0.09303854  0.44675850  0.98285412     0.02200
C1039       C  0.11516621  0.44260042  0.87588145     0.09000
N1040       N  0.13928564  0.43362859  0.93871620     0.65400
H1041       H  0.13202110  0.43884118  0.01887603     0.18300
N1042       N  0.07691473  0.45061651  0.99666041     0.75900
H1043       H  0.08563777  0.44733436  0.91632766     0.09800
C1044       C  0.09944108  0.43147067  0.84509371     0.03500
C1045       C  0.10371847  0.43560308  0.80111767    -0.05200
C1046       C  0.12353446  0.45074428  0.78669123    -0.23600
C1047       C  0.13942202  0.46134161  0.81766033     0.12800
C1048       C  0.13505282  0.45732029  0.86148123    -0.12700
N1049       N  0.07901052  0.41599347  0.85791535     0.64400
H1050       H  0.09124212  0.42718385  0.77822429     0.12300
N1051       N  0.16008091  0.47648304  0.80547046     0.61100
H1052       H  0.14721897  0.46639964  0.88454791     0.08400
O1053       O  0.07906241  0.46847547  0.99186317    -0.40400
O1054       O  0.05922137  0.43546632  0.00549728    -0.39600
O1055       O  0.15824207  0.44703549  0.94343481    -0.39600
O1056       O  0.13424718  0.41504725  0.93036696    -0.37300
O1057       O  0.16557002  0.49554958  0.80669488    -0.38200
O1058       O  0.17375325  0.47118019  0.80247874    -0.34300
O1059       O  0.06403355  0.41930319  0.85281158    -0.35700
O1060       O  0.07531391  0.39775808  0.86558013    -0.40000
C1061       C  0.12626982  0.44058472  0.44964055    -0.13700
C1062       C  0.11367007  0.44488169  0.42283833     0.16700
C1063       C  0.09955630  0.45000100  0.44141835     0.03000
C1064       C  0.09874212  0.45150660  0.48616089    -0.12200
C1065       C  0.11199842  0.44817987  0.51340982    -0.03300
C1066       C  0.12546599  0.44201313  0.49456937     0.02200
C1067       C  0.11676201  0.44595839  0.37562938     0.09000
N1068       N  0.08692770  0.45508879  0.41508470     0.65400
H1069       H  0.08819871  0.45616103  0.49942474     0.18300
N1070       N  0.13902782  0.43794360  0.52021503     0.75900
H1071       H  0.13717552  0.43661859  0.43552629     0.09800
C1072       C  0.13404681  0.46320176  0.35734164     0.03500
C1073       C  0.13636784  0.46483867  0.31273135    -0.05200
C1074       C  0.12155586  0.44956291  0.28509272    -0.23600
C1075       C  0.10452037  0.43179760  0.30365864     0.12800
C1076       C  0.10220193  0.43023969  0.34864066    -0.12700
N1077       N  0.14880775  0.47980898  0.38375412     0.64400
H1078       H  0.14954002  0.47868578  0.29977309     0.12300
N1079       N  0.08953895  0.41519062  0.27755113     0.61100
H1080       H  0.08894221  0.41678894  0.36255050     0.08400
O1081       O  0.15821123  0.45104995  0.52125767    -0.40400
O1082       O  0.13264600  0.41983875  0.53451950    -0.39600
O1083       O  0.06751093  0.44304326  0.41383145    -0.39600
O1084       O  0.09470591  0.47291828  0.39837744    -0.37300
O1085       O  0.09267734  0.40057958  0.26678735    -0.38200
O1086       O  0.07183661  0.41326803  0.27166992    -0.34300
O1087       O  0.16664483  0.48205797  0.38952555    -0.35700
O1088       O  0.14512676  0.49388799  0.39589161    -0.40000
C1089       C  0.22106481  0.48337884  0.65251243    -0.13700
C1090       C  0.22077933  0.46843991  0.62430612     0.16700
C1091       C  0.20151908  0.45348449  0.60610243     0.03000
C1092       C  0.18330056  0.45390648  0.61602654    -0.12200
C1093       C  0.18392299  0.46951231  0.64243658    -0.03300
C1094       C  0.20302581  0.48428832  0.66096145     0.02200
C1095       C  0.24046926  0.46811935  0.61626301     0.09000
N1096       N  0.20025933  0.43828254  0.57611323     0.65400
H1097       H  0.16873099  0.44247096  0.60163003     0.18300
N1098       N  0.20422584  0.49982769  0.68988309     0.75900
H1099       H  0.23532464  0.49429897  0.66862791     0.09800
C1100       C  0.25938238  0.48646486  0.60696858     0.03500
C1101       C  0.27771752  0.48566833  0.60176109    -0.05200
C1102       C  0.27769474  0.46674468  0.60390085    -0.23600
C1103       C  0.25869344  0.44831578  0.61262402     0.12800
C1104       C  0.24059561  0.44932189  0.61996216    -0.12700
N1105       N  0.26017407  0.50596879  0.60118267     0.64400
H1106       H  0.29196119  0.49994924  0.59455411     0.12300
N1107       N  0.25729454  0.42837280  0.61390405     0.61100
H1108       H  0.22649493  0.43518949  0.62847558     0.08400
O1109       O  0.21161671  0.51831217  0.67701514    -0.40400
O1110       O  0.20169065  0.49600119  0.72959875    -0.39600
O1111       O  0.18988195  0.41921283  0.58547862    -0.39600
O1112       O  0.20607770  0.44358163  0.53784949    -0.37300
O1113       O  0.25251909  0.41830371  0.64864905    -0.38200
O1114       O  0.25555526  0.41887665  0.57910827    -0.34300
O1115       O  0.27060892  0.52072907  0.62697606    -0.35700
O1116       O  0.25389192  0.50961289  0.56631489    -0.40000
C1117       C  0.21691525  0.48125167  0.14814297    -0.13700
C1118       C  0.21688774  0.46672102  0.11913552     0.16700
C1119       C  0.19790754  0.45218354  0.09950370     0.03000
C1120       C  0.17958101  0.45254647  0.10884924    -0.12200
C1121       C  0.17983545  0.46744773  0.13699737    -0.03300
C1122       C  0.19869505  0.48178298  0.15701613     0.02200
C1123       C  0.23661510  0.46643342  0.11175462     0.09000
N1124       N  0.19711329  0.43746330  0.06882239     0.65400
H1125       H  0.16520546  0.44150881  0.09312299     0.18300
N1126       N  0.19933540  0.49616992  0.18841282     0.75900
H1127       H  0.23109161  0.49196160  0.16486986     0.09800
C1128       C  0.25516116  0.48465427  0.10042378     0.03500
C1129       C  0.27382442  0.48433292  0.09712642    -0.05200
C1130       C  0.27455244  0.46595635  0.10381801    -0.23600
C1131       C  0.25587217  0.44759256  0.11462985     0.12800
C1132       C  0.23729474  0.44810329  0.11911157    -0.12700
N1133       N  0.25519294  0.50351115  0.09078264     0.64400
H1134       H  0.28776333  0.49853383  0.08807693     0.12300
N1135       N  0.25543488  0.42835654  0.12200390     0.61100
H1136       H  0.22334745  0.43409635  0.12889565     0.08400
O1137       O  0.20796903  0.51528361  0.17951040    -0.40400
O1138       O  0.19450467  0.49033220  0.22683208    -0.39600
O1139       O  0.18818380  0.41841493  0.07846767    -0.39600
O1140       O  0.20148921  0.44283730  0.03006338    -0.37300
O1141       O  0.25258917  0.42112097  0.15961718    -0.38200
O1142       O  0.25276512  0.41649568  0.09060231    -0.34300
O1143       O  0.26449318  0.51899285  0.11549609    -0.35700
O1144       O  0.24942394  0.50589202  0.05408909    -0.40000
C1145       C  0.32312566  0.43112476  0.89831247    -0.13700
C1146       C  0.31648555  0.44172682  0.87100474     0.16700
C1147       C  0.30797495  0.45323594  0.88908835     0.03000
C1148       C  0.30736158  0.45498204  0.93372642    -0.12200
C1149       C  0.31514452  0.44543480  0.96127881    -0.03300
C1150       C  0.32247612  0.43280012  0.94310503     0.02200
C1151       C  0.31935566  0.44145482  0.82386715     0.09000
N1152       N  0.30113456  0.46437851  0.86252210     0.65400
H1153       H  0.30151526  0.46461510  0.94677769     0.18300
N1154       N  0.33037158  0.42248638  0.96936539     0.75900
H1155       H  0.32929044  0.42186378  0.88475128     0.09800
C1156       C  0.33925322  0.44882833  0.80617152     0.03500
C1157       C  0.34176885  0.44965426  0.76160759    -0.05200
C1158       C  0.32477476  0.44344420  0.73349091    -0.23600
C1159       C  0.30468498  0.43527294  0.75142449     0.12800
C1160       C  0.30219544  0.43438748  0.79621388    -0.12700
N1161       N  0.35728428  0.45678726  0.83299454     0.64400
H1162       H  0.35739027  0.45601473  0.74912844     0.12300
N1163       N  0.28663538  0.42789062  0.72494385     0.61100
H1164       H  0.28674596  0.42823364  0.80951012     0.08400
O1165       O  0.34975068  0.42989553  0.97263725    -0.40400
O1166       O  0.31820585  0.40425027  0.98238147    -0.39600
O1167       O  0.28194809  0.45796890  0.85865705    -0.39600
O1168       O  0.31416291  0.48219657  0.84876541    -0.37300
O1169       O  0.27857957  0.40984621  0.70906182    -0.38200
O1170       O  0.27634947  0.43724162  0.72547587    -0.34300
O1171       O  0.36658215  0.44656098  0.83737633    -0.35700
O1172       O  0.36606414  0.47550042  0.84521532    -0.40000
C1173       C  0.31032123  0.44516451  0.29914833    -0.13700
C1174       C  0.32545496  0.44340773  0.32275315     0.16700
C1175       C  0.34145090  0.44234692  0.30093001     0.03000
C1176       C  0.34279990  0.44430197  0.25613426    -0.12200
C1177       C  0.32821629  0.44707773  0.23231699    -0.03300
C1178       C  0.31151262  0.44701580  0.25430560     0.02200
C1179       C  0.32543599  0.44505081  0.37008607     0.09000
N1180       N  0.35688334  0.44011502  0.32397158     0.65400
H1181       H  0.35559269  0.44404026  0.24002446     0.18300
N1182       N  0.29631700  0.45004897  0.23222676     0.75900
H1183       H  0.29799631  0.44605237  0.31590834     0.09800
C1184       C  0.33075998  0.46422542  0.38931131     0.03500
C1185       C  0.32910605  0.46548290  0.43367088    -0.05200
C1186       C  0.32215718  0.44784987  0.46004302    -0.23600
C1187       C  0.31720453  0.42863214  0.44081371     0.12800
C1188       C  0.31891952  0.42739811  0.39600613    -0.12700
N1189       N  0.33798127  0.48264382  0.36403853     0.64400
H1190       H  0.33352711  0.48054208  0.44751907     0.12300
N1191       N  0.30944600  0.41010330  0.46582400     0.61100
H1192       H  0.31461227  0.41254164  0.38128799     0.08400
O1193       O  0.30135165  0.46777278  0.21735778    -0.40400
O1194       O  0.27731894  0.43665391  0.23597938    -0.39600
O1195       O  0.35518975  0.42237692  0.32722403    -0.39600
O1196       O  0.37378914  0.45607712  0.33412893    -0.37300
O1197       O  0.29018034  0.39930303  0.47281720    -0.38200
O1198       O  0.32106121  0.40260826  0.47384640    -0.34300
O1199       O  0.32561032  0.48902574  0.35428021    -0.35700
O1200       O  0.35724208  0.49439312  0.35838328    -0.40000
C1201       C  0.45689115  0.58335147  0.95953877    -0.13700
C1202       C  0.44836135  0.56355650  0.94080345     0.16700
C1203       C  0.45537857  0.56165044  0.89996058     0.03000
C1204       C  0.47033860  0.57943277  0.87824269    -0.12200
C1205       C  0.47854967  0.59945446  0.89630990    -0.03300
C1206       C  0.47178642  0.60118638  0.93791845     0.02200
C1207       C  0.43087934  0.54554516  0.96292968     0.09000
N1208       N  0.44742207  0.54173453  0.88008655     0.65400
H1209       H  0.47519191  0.57751708  0.84657650     0.18300
N1210       N  0.47902278  0.62096794  0.95797303     0.75900
H1211       H  0.45140733  0.58506947  0.99068593     0.09800
C1212       C  0.43350359  0.53889611  0.00364898     0.03500
C1213       C  0.41615880  0.52417415  0.02672203    -0.05200
C1214       C  0.39584368  0.51583029  0.01022948    -0.23600
C1215       C  0.39337718  0.52190557  0.96840269     0.12800
C1216       C  0.41081687  0.53657612  0.94532462    -0.12700
N1217       N  0.45372335  0.54719750  0.02226412     0.64400
H1218       H  0.41866351  0.51971005  0.05834392     0.12300
N1219       N  0.37326228  0.51429900  0.94969204     0.61100
H1220       H  0.40855043  0.54174085  0.91424295     0.08400
O1221       O  0.49544258  0.62888122  0.98022013    -0.40400
O1222       O  0.46751157  0.62899494  0.95869147    -0.39600
O1223       O  0.43372753  0.53618521  0.85115130    -0.39600
O1224       O  0.45674316  0.53159291  0.88551768    -0.37300
O1225       O  0.36422840  0.52482217  0.95310494    -0.38200
O1226       O  0.36624789  0.49917699  0.92382642    -0.34300
O1227       O  0.45924977  0.56045660  0.05209724    -0.35700
O1228       O  0.46434416  0.53856926  0.01458376    -0.40000
C1229       C  0.39618691  0.57044020  0.66008908    -0.13700
C1230       C  0.40576896  0.57094833  0.69929574     0.16700
C1231       C  0.39899277  0.55219011  0.72199508     0.03000
C1232       C  0.38396735  0.53328726  0.70394500    -0.12200
C1233       C  0.37553415  0.53249432  0.66299847    -0.03300
C1234       C  0.38119803  0.55152422  0.64184175     0.02200
C1235       C  0.42366335  0.59079976  0.71501007     0.09000
N1236       N  0.40842783  0.55185435  0.76186044     0.65400
H1237       H  0.37988614  0.51905799  0.72109174     0.18300
N1238       N  0.37254946  0.55198585  0.60106020     0.75900
H1239       H  0.40078891  0.58478200  0.64292636     0.09800
C1240       C  0.44181159  0.60183686  0.69009357     0.03500
C1241       C  0.45974053  0.61828121  0.70843964    -0.05200
C1242       C  0.46009911  0.62405146  0.75164623    -0.23600
C1243       C  0.44120202  0.61447520  0.77495773     0.12800
C1244       C  0.42328282  0.59794910  0.75656305    -0.12700
N1245       N  0.44288204  0.59541235  0.64730989     0.64400
H1246       H  0.47385293  0.62555581  0.68955738     0.12300
N1247       N  0.44015444  0.62035530  0.81821977     0.61100
H1248       H  0.40922336  0.59009280  0.77550297     0.08400
O1249       O  0.38325511  0.55541706  0.56743423    -0.40400
O1250       O  0.35583451  0.55252361  0.59951113    -0.39600
O1251       O  0.39814383  0.54782722  0.79623834    -0.39600
O1252       O  0.42563861  0.55228420  0.76181857    -0.37300
O1253       O  0.43545871  0.63426476  0.82523352    -0.38200
O1254       O  0.44010029  0.60920832  0.84890063    -0.34300
O1255       O  0.44303577  0.60623008  0.61587990    -0.35700
O1256       O  0.44714453  0.58112402  0.64134509    -0.40000
C1257       C  0.55453434  0.66476301  0.60741177    -0.13700
C1258       C  0.55344100  0.68193069  0.59181901     0.16700
C1259       C  0.55194226  0.69554581  0.62120546     0.03000
C1260       C  0.55050508  0.69131789  0.66540261    -0.12200
C1261       C  0.55029507  0.67341007  0.68106107    -0.03300
C1262       C  0.55287308  0.66035191  0.65156561     0.02200
C1263       C  0.54932467  0.68261692  0.54540175     0.09000
N1264       N  0.55088046  0.71324078  0.60648851     0.65400
H1265       H  0.54842062  0.70137372  0.68702805     0.18300
N1266       N  0.55313910  0.64214148  0.66556168     0.75900
H1267       H  0.55538872  0.65407427  0.58511328     0.09800
C1268       C  0.56456839  0.68746393  0.51365194     0.03500
C1269       C  0.55894344  0.68484855  0.46995150    -0.05200
C1270       C  0.53811752  0.67696997  0.45736372    -0.23600
C1271       C  0.52302561  0.67268607  0.48951358     0.12800
C1272       C  0.52878001  0.67567899  0.53284991    -0.12700
N1273       N  0.58568872  0.69462020  0.52533686     0.64400
H1274       H  0.57073588  0.68815293  0.44597664     0.12300
N1275       N  0.50163057  0.66480304  0.47895060     0.61100
H1276       H  0.51691775  0.67171009  0.55703890     0.08400
O1277       O  0.53666353  0.62470860  0.66371904    -0.40400
O1278       O  0.57032662  0.64285954  0.67114607    -0.39600
O1279       O  0.53361960  0.71269743  0.60581609    -0.39600
O1280       O  0.56743538  0.73039113  0.60165178    -0.37300
O1281       O  0.48886663  0.64567047  0.48368647    -0.38200
O1282       O  0.49491926  0.67730781  0.47413560    -0.34300
O1283       O  0.59262593  0.68217860  0.52426151    -0.35700
O1284       O  0.59819242  0.71389337  0.52878230    -0.40000
C1285       C  0.55610929  0.66367060  0.01626153    -0.13700
C1286       C  0.54950998  0.67410764  0.04415099     0.16700
C1287       C  0.54257254  0.68710652  0.02655195     0.03000
C1288       C  0.54137359  0.68865082  0.98184149    -0.12200
C1289       C  0.54713211  0.67752095  0.95388381    -0.03300
C1290       C  0.55494312  0.66521571  0.97152842     0.02200
C1291       C  0.54867472  0.67023281  0.09124918     0.09000
N1292       N  0.53550584  0.69786256  0.05365463     0.65400
H1293       H  0.53527706  0.69810508  0.96894531     0.18300
N1294       N  0.56018212  0.65288262  0.94464224     0.75900
H1295       H  0.56160692  0.65374447  0.02931281     0.09800
C1296       C  0.53620851  0.65005223  0.10783188     0.03500
C1297       C  0.53446710  0.64686110  0.15220961    -0.05200
C1298       C  0.54488027  0.66344294  0.18134021    -0.23600
C1299       C  0.55833233  0.68351151  0.16476578     0.12800
C1300       C  0.55995511  0.68676434  0.12001639    -0.12700
N1301       N  0.52412317  0.63275477  0.08010880     0.64400
H1302       H  0.52431246  0.63125072  0.16390288     0.12300
N1303       N  0.56986346  0.70086410  0.19264299     0.61100
H1304       H  0.56991917  0.70228607  0.10768539     0.08400
O1305       O  0.54669025  0.63426557  0.93649281    -0.40400
O1306       O  0.57892220  0.65944951  0.93480407    -0.39600
O1307       O  0.54652499  0.71730894  0.05826927    -0.39600
O1308       O  0.51699781  0.68860660  0.06698525    -0.37300
O1309       O  0.58775781  0.70507105  0.20494045    -0.38200
O1310       O  0.56440992  0.71438715  0.19661754    -0.34300
O1311       O  0.52995061  0.61968605  0.07312662    -0.35700
O1312       O  0.50572155  0.62808236  0.07103441    -0.40000
C1313       C  0.46316017  0.55566354  0.41600209    -0.13700
C1314       C  0.45101395  0.55839955  0.44701215     0.16700
C1315       C  0.45433814  0.57846535  0.45518097     0.03000
C1316       C  0.46843012  0.59517105  0.43018438    -0.12200
C1317       C  0.47977636  0.59245329  0.39718332    -0.03300
C1318       C  0.47779487  0.57262255  0.39152822     0.02200
C1319       C  0.43372232  0.54027053  0.46854412     0.09000
N1320       N  0.44291066  0.58197661  0.48784163     0.65400
H1321       H  0.46998034  0.61027735  0.43577743     0.18300
N1322       N  0.48970485  0.56921438  0.35989696     0.75900
H1323       H  0.46088524  0.54028398  0.41004670     0.09800
C1324       C  0.41346377  0.53114209  0.45161614     0.03500
C1325       C  0.39660637  0.51651147  0.47575508    -0.05200
C1326       C  0.39950929  0.51059903  0.51700524    -0.23600
C1327       C  0.42013567  0.51871749  0.53250615     0.12800
C1328       C  0.43696331  0.53364496  0.50844263    -0.12700
N1329       N  0.40971793  0.53731721  0.41061019     0.64400
H1330       H  0.38110160  0.51038721  0.46263730     0.12300
N1331       N  0.42432781  0.51225169  0.57274468     0.61100
H1332       H  0.45256264  0.54050319  0.52147070     0.08400
O1333       O  0.48115346  0.55995919  0.32534637    -0.40400
O1334       O  0.50738279  0.57190886  0.36977034    -0.39600
O1335       O  0.45126346  0.58889135  0.52398713    -0.39600
O1336       O  0.42640178  0.58197957  0.47812773    -0.37300
O1337       O  0.42715721  0.49683422  0.57390765    -0.38200
O1338       O  0.42895506  0.52401531  0.60511422    -0.34300
O1339       O  0.40939998  0.52740080  0.37739493    -0.35700
O1340       O  0.40354542  0.55035510  0.40839168    -0.40000
C1341       C  0.43764126  0.59920870  0.18906116    -0.13700
C1342       C  0.41910277  0.59335357  0.21128189     0.16700
C1343       C  0.41983424  0.60350712  0.25007126     0.03000
C1344       C  0.43909021  0.61806346  0.26776712    -0.12200
C1345       C  0.45767302  0.62238596  0.24748592    -0.03300
C1346       C  0.45685880  0.61357806  0.20684584     0.02200
C1347       C  0.40007326  0.57425822  0.19706409     0.09000
N1348       N  0.40121628  0.59829274  0.27296231     0.65400
H1349       H  0.43953419  0.62460075  0.29917800     0.18300
N1350       N  0.47550282  0.61818258  0.18453996     0.75900
H1351       H  0.43728677  0.59152588  0.15916180     0.09800
C1352       C  0.39155304  0.57285298  0.15594774     0.03500
C1353       C  0.37767889  0.55325309  0.13845506    -0.05200
C1354       C  0.37193477  0.53483503  0.16160091    -0.23600
C1355       C  0.37930094  0.53657047  0.20436350     0.12800
C1356       C  0.39326854  0.55614327  0.22143149    -0.12700
N1357       N  0.39754917  0.59122701  0.13116418     0.64400
H1358       H  0.37213589  0.55246012  0.10589719     0.12300
N1359       N  0.37383024  0.51861516  0.23015233     0.61100
H1360       H  0.39994430  0.55704375  0.25291619     0.08400
O1361       O  0.48091413  0.60456879  0.18183243    -0.40400
O1362       O  0.48450749  0.63434087  0.16169011    -0.39600
O1363       O  0.39616493  0.58636156  0.30504696    -0.39600
O1364       O  0.39201061  0.60843255  0.26601368    -0.37300
O1365       O  0.35926431  0.51272551  0.25702814    -0.38200
O1366       O  0.38599184  0.51135711  0.23220402    -0.34300
O1367       O  0.40632892  0.59355749  0.09527869    -0.35700
O1368       O  0.39491752  0.60558615  0.14602047    -0.40000
C1369       C  0.38355087  0.36234532  0.58426008    -0.13700
C1370       C  0.39232230  0.38394102  0.58757884     0.16700
C1371       C  0.41399338  0.39663980  0.59174197     0.03000
C1372       C  0.42666363  0.38775347  0.59016797    -0.12200
C1373       C  0.41814941  0.36615147  0.58580106    -0.03300
C1374       C  0.39624738  0.35331113  0.58375780     0.02200
C1375       C  0.37900314  0.39342491  0.58654374     0.09000
N1376       N  0.42329775  0.41855136  0.59904340     0.65400
H1377       H  0.44331688  0.39793954  0.59268143     0.18300
N1378       N  0.38661580  0.33115704  0.58187147     0.75900
H1379       H  0.36683321  0.35251270  0.58196960     0.09800
C1380       C  0.38014940  0.40614195  0.55183725     0.03500
C1381       C  0.37145524  0.41896675  0.55572828    -0.05200
C1382       C  0.36079975  0.41854177  0.59308146    -0.23600
C1383       C  0.35807131  0.40449481  0.62629756     0.12800
C1384       C  0.36741535  0.39218522  0.62303364    -0.12700
N1385       N  0.39005657  0.40608407  0.51253753     0.64400
H1386       H  0.37305598  0.42932504  0.52959325     0.12300
N1387       N  0.34732522  0.40384631  0.66485124     0.61100
H1388       H  0.36652817  0.38245303  0.64984849     0.08400
O1389       O  0.38236633  0.32086740  0.61630140    -0.40400
O1390       O  0.37905754  0.32180718  0.54684935    -0.39600
O1391       O  0.42056088  0.42503073  0.63457987    -0.39600
O1392       O  0.43708208  0.43118886  0.57373848    -0.37300
O1393       O  0.35678029  0.41669233  0.69469988    -0.38200
O1394       O  0.32811588  0.39113378  0.66818607    -0.34300
O1395       O  0.38010199  0.39189852  0.48529384    -0.35700
O1396       O  0.40670427  0.42207205  0.50147949    -0.40000
C1397       C  0.38838377  0.36970861  0.06964999    -0.13700
C1398       C  0.39756527  0.39083512  0.08034616     0.16700
C1399       C  0.41863744  0.40177576  0.09268590     0.03000
C1400       C  0.43028822  0.39167609  0.09296030    -0.12200
C1401       C  0.42133487  0.37053083  0.08175280    -0.03300
C1402       C  0.40001373  0.35948848  0.07020675     0.02200
C1403       C  0.38495032  0.40124958  0.07981264     0.09000
N1404       N  0.42822258  0.42295260  0.10670932     0.65400
H1405       H  0.44647845  0.40051557  0.10248667     0.18300
N1406       N  0.38996083  0.33804063  0.05824587     0.75900
H1407       H  0.37212740  0.36114875  0.06047809     0.09800
C1408       C  0.38914595  0.41740291  0.05062727     0.03500
C1409       C  0.37919006  0.42909095  0.05536786    -0.05200
C1410       C  0.36445831  0.42450683  0.08789216    -0.23600
C1411       C  0.35938877  0.40753786  0.11554725     0.12800
C1412       C  0.36972176  0.39614282  0.11139301    -0.12700
N1413       N  0.40308908  0.42177560  0.01544998     0.64400
H1414       H  0.38292715  0.44178181  0.03333235     0.12300
N1415       N  0.34505443  0.40271310  0.15010170     0.61100
H1416       H  0.36647789  0.38381365  0.13407598     0.08400
O1417       O  0.38852143  0.33310892  0.01905638    -0.40400
O1418       O  0.37944241  0.32427744  0.08574081    -0.39600
O1419       O  0.42382623  0.42705346  0.14325687    -0.39600
O1420       O  0.44375736  0.43681054  0.08675408    -0.37300
O1421       O  0.32719133  0.38684280  0.14759086    -0.38200
O1422       O  0.35152886  0.41173374  0.18584634    -0.34300
O1423       O  0.39712666  0.40976158  0.98333059    -0.35700
O1424       O  0.41904428  0.43954177  0.01225426    -0.40000
C1425       C  0.43297618  0.30745202  0.88335014    -0.13700
C1426       C  0.43867921  0.32450119  0.85608707     0.16700
C1427       C  0.44518441  0.34423175  0.87422765     0.03000
C1428       C  0.44661085  0.34668485  0.91874530    -0.12200
C1429       C  0.44207595  0.32988804  0.94621367    -0.03300
C1430       C  0.43492821  0.31000261  0.92797940     0.02200
C1431       C  0.43863427  0.32167351  0.80896305     0.09000
N1432       N  0.45147450  0.36220387  0.84796351     0.65400
H1433       H  0.45206236  0.36213249  0.93163058     0.18300
N1434       N  0.43015694  0.29232281  0.95391559     0.75900
H1435       H  0.42745139  0.29210651  0.86986352     0.09800
C1436       C  0.44962065  0.31269916  0.79029627     0.03500
C1437       C  0.45094394  0.31200415  0.74570651    -0.05200
C1438       C  0.44180633  0.32043529  0.71882876    -0.23600
C1439       C  0.42982253  0.32835910  0.73742168     0.12800
C1440       C  0.42815676  0.32868381  0.78218802    -0.12700
N1441       N  0.46063747  0.30539792  0.81606692     0.64400
H1442       H  0.46003757  0.30565015  0.73213934     0.12300
N1443       N  0.42037573  0.33734305  0.71169415     0.61100
H1444       H  0.41917192  0.33506467  0.79611918     0.08400
O1445       O  0.44426512  0.28807099  0.96233252    -0.40400
O1446       O  0.41138807  0.27873111  0.95988045    -0.39600
O1447       O  0.43994000  0.37016631  0.84530696    -0.39600
O1448       O  0.47010890  0.37253756  0.83563907    -0.37300
O1449       O  0.43029585  0.35657870  0.70368285    -0.38200
O1450       O  0.40108274  0.32711272  0.70447139    -0.34300
O1451       O  0.45403345  0.28611517  0.81860243    -0.35700
O1452       O  0.47877553  0.31808142  0.82895990    -0.40000
C1453       C  0.42665694  0.32450565  0.28246312    -0.13700
C1454       C  0.43959110  0.32058091  0.30913620     0.16700
C1455       C  0.45375178  0.31554965  0.29032731     0.03000
C1456       C  0.45547837  0.31550346  0.24562703    -0.12200
C1457       C  0.44354610  0.32076021  0.21862115    -0.03300
C1458       C  0.42849586  0.32464994  0.23755029     0.02200
C1459       C  0.43906115  0.32287858  0.35640983     0.09000
N1460       N  0.46757332  0.31193172  0.31622796     0.65400
H1461       H  0.46702421  0.31227120  0.23217896     0.18300
N1462       N  0.41554877  0.32959659  0.21197507     0.75900
H1463       H  0.41542890  0.32800219  0.29663964     0.09800
C1464       C  0.44400108  0.34214119  0.37479646     0.03500
C1465       C  0.44538618  0.34458728  0.41940634    -0.05200
C1466       C  0.44194182  0.32809318  0.44685057    -0.23600
C1467       C  0.43592382  0.30843536  0.42831386     0.12800
C1468       C  0.43464799  0.30605354  0.38346369    -0.12700
N1469       N  0.44880599  0.35974550  0.34846616     0.64400
H1470       H  0.44980465  0.35979079  0.43242544     0.12300
N1471       N  0.43109283  0.29072976  0.45424205     0.61100
H1472       H  0.43045951  0.29104801  0.36964293     0.08400
O1473       O  0.42008719  0.34832394  0.20791275    -0.40400
O1474       O  0.39784100  0.31525871  0.20035678    -0.39600
O1475       O  0.46593432  0.29416065  0.31661164    -0.39600
O1476       O  0.48321722  0.32710725  0.33337576    -0.37300
O1477       O  0.41229738  0.27771699  0.46185679    -0.38200
O1478       O  0.44484222  0.28578627  0.46099234    -0.34300
O1479       O  0.43579744  0.36589107  0.34475754    -0.35700
O1480       O  0.46713191  0.37108471  0.33508718    -0.40000
C1481       C  0.73497170  0.51757507  0.87870617    -0.13700
C1482       C  0.75109384  0.53524476  0.89876540     0.16700
C1483       C  0.74772679  0.55183355  0.90937635     0.03000
C1484       C  0.72859644  0.55053165  0.89981320    -0.12200
C1485       C  0.71237471  0.53282666  0.87974793    -0.03300
C1486       C  0.71579605  0.51615276  0.86938490     0.02200
C1487       C  0.77155770  0.53638229  0.90606759     0.09000
N1488       N  0.76341956  0.56994841  0.93080496     0.65400
H1489       H  0.72651329  0.56354835  0.90807051     0.18300
N1490       N  0.69996525  0.49751544  0.84968865     0.75900
H1491       H  0.73736335  0.50483496  0.86960781     0.09800
C1492       C  0.77295745  0.52049794  0.92813784     0.03500
C1493       C  0.79199177  0.52081274  0.93045568    -0.05200
C1494       C  0.81012197  0.53701672  0.91196515    -0.23600
C1495       C  0.80883208  0.55315459  0.89064230     0.12800
C1496       C  0.78965910  0.55260747  0.88755409    -0.12700
N1497       N  0.75527355  0.50420539  0.94941298     0.64400
H1498       H  0.79265452  0.50846040  0.94765763     0.12300
N1499       N  0.82649631  0.56949151  0.86951339     0.61100
H1500       H  0.78880904  0.56462585  0.86945499     0.08400
O1501       O  0.68825065  0.48211562  0.87284510    -0.40400
O1502       O  0.70017691  0.49518006  0.80955550    -0.39600
O1503       O  0.77283610  0.58695373  0.91073940    -0.39600
O1504       O  0.76495150  0.56988551  0.97118558    -0.37300
O1505       O  0.82860649  0.56823771  0.82960481    -0.38200
O1506       O  0.83710911  0.58676180  0.88825055    -0.34300
O1507       O  0.74731516  0.48576240  0.93577420    -0.35700
O1508       O  0.75007541  0.50759897  0.98579488    -0.40000
C1509       C  0.60374561  0.59068239  0.87918464    -0.13700
C1510       C  0.60623792  0.60043657  0.83935610     0.16700
C1511       C  0.61971545  0.59935586  0.80887083     0.03000
C1512       C  0.62958531  0.58773548  0.81783739    -0.12200
C1513       C  0.62623724  0.57704461  0.85701881    -0.03300
C1514       C  0.61363481  0.57924176  0.88838424     0.02200
C1515       C  0.59392951  0.61091430  0.83032039     0.09000
N1516       N  0.62264752  0.60903655  0.76784367     0.65400
H1517       H  0.63919010  0.58637147  0.79332950     0.18300
N1518       N  0.61094842  0.57024521  0.93016177     0.75900
H1519       H  0.59389414  0.59187026  0.90336425     0.09800
C1520       C  0.57206111  0.59930983  0.82957871     0.03500
C1521       C  0.56043917  0.60936271  0.82543514    -0.05200
C1522       C  0.57006730  0.63115348  0.82176315    -0.23600
C1523       C  0.59209992  0.64283425  0.82218789     0.12800
C1524       C  0.60377738  0.63265339  0.82631159    -0.12700
N1525       N  0.56137709  0.57712748  0.83249399     0.64400
H1526       H  0.54366163  0.59986417  0.82479729     0.12300
N1527       N  0.60289811  0.66502204  0.81978401     0.61100
H1528       H  0.62057597  0.64180190  0.82759226     0.08400
O1529       O  0.59367542  0.55480564  0.94033729    -0.40400
O1530       O  0.62438250  0.57988736  0.95895168    -0.39600
O1531       O  0.63949592  0.62544083  0.75970042    -0.39600
O1532       O  0.60993446  0.59951527  0.73783515    -0.37300
O1533       O  0.60756522  0.67562500  0.85391425    -0.38200
O1534       O  0.61079339  0.67389607  0.78462887    -0.34300
O1535       O  0.55184304  0.56832246  0.86653687    -0.35700
O1536       O  0.55860455  0.56640913  0.79905610    -0.40000
C1537       C  0.59683707  0.44250359  0.99165887    -0.13700
C1538       C  0.59045751  0.42405098  0.96839953     0.16700
C1539       C  0.59987157  0.42513951  0.92832065     0.03000
C1540       C  0.61406112  0.44458590  0.91078545    -0.12200
C1541       C  0.61890542  0.46303092  0.93253167    -0.03300
C1542       C  0.61091350  0.46185741  0.97413418     0.02200
C1543       C  0.57131306  0.40497657  0.98279325     0.09000
N1544       N  0.59428532  0.40673427  0.90399386     0.65400
H1545       H  0.61995258  0.44529846  0.87865390     0.18300
N1546       N  0.61580950  0.48031391  0.99769364     0.75900
H1547       H  0.58961645  0.44208272  0.02210214     0.09800
C1548       C  0.56920964  0.39751200  0.02520324     0.03500
C1549       C  0.54948449  0.38338242  0.04125856    -0.05200
C1550       C  0.53146395  0.37645184  0.01591300    -0.23600
C1551       C  0.53382631  0.38265632  0.97234442     0.12800
C1552       C  0.55358312  0.39684575  0.95637801    -0.12700
N1553       N  0.58685272  0.40487770  0.05303583     0.64400
H1554       H  0.54825556  0.37875210  0.07458818     0.12300
N1555       N  0.51628846  0.37557864  0.94433336     0.61100
H1556       H  0.55480460  0.40262641  0.92397800     0.08400
O1557       O  0.63122007  0.48806073  0.02286507    -0.40400
O1558       O  0.60271456  0.48641664  0.99962526    -0.39600
O1559       O  0.58375696  0.40322732  0.86997365    -0.39600
O1560       O  0.60335501  0.39650650  0.91145652    -0.37300
O1561       O  0.50880876  0.38724274  0.93665607    -0.38200
O1562       O  0.51100879  0.35974526  0.92114653    -0.34300
O1563       O  0.58845846  0.41605579  0.08503650    -0.35700
O1564       O  0.59835979  0.39688375  0.05069660    -0.40000
C1565       C  0.52908223  0.43859713  0.67965858    -0.13700
C1566       C  0.53853399  0.43543105  0.71565109     0.16700
C1567       C  0.53276480  0.41499580  0.72799928     0.03000
C1568       C  0.51814119  0.39813121  0.70369931    -0.12200
C1569       C  0.50908587  0.40118185  0.66668016    -0.03300
C1570       C  0.51430656  0.42169967  0.65539551     0.02200
C1571       C  0.55472764  0.45351062  0.73971283     0.09000
N1572       N  0.54253411  0.41119642  0.76374649     0.65400
H1573       H  0.51457085  0.38261608  0.71293759     0.18300
N1574       N  0.50440266  0.42563394  0.62012400     0.75900
H1575       H  0.53315986  0.45426585  0.67046852     0.09800
C1576       C  0.57432947  0.46663560  0.72129697     0.03500
C1577       C  0.59029516  0.48188186  0.74649822    -0.05200
C1578       C  0.58695813  0.48451097  0.78981547    -0.23600
C1579       C  0.56698400  0.47229825  0.80753475     0.12800
C1580       C  0.55104033  0.45684350  0.78242106    -0.12700
N1581       N  0.57868220  0.46362366  0.67801500     0.64400
H1582       H  0.60567158  0.49104237  0.73276970     0.12300
N1583       N  0.56317151  0.47414790  0.85186544     0.61100
H1584       H  0.53597420  0.44686158  0.79675980     0.08400
O1585       O  0.51455486  0.43395378  0.58636555    -0.40400
O1586       O  0.48683776  0.42409455  0.62545575    -0.39600
O1587       O  0.53266353  0.40432808  0.79842391    -0.39600
O1588       O  0.55944753  0.41132956  0.75837264    -0.37300
O1589       O  0.55394640  0.48390099  0.86227800    -0.38200
O1590       O  0.56560960  0.46307325  0.87944719    -0.34300
O1591       O  0.57944204  0.47586551  0.64901623    -0.35700
O1592       O  0.58518066  0.45115395  0.67022481    -0.40000
C1593       C  0.74873976  0.54624165  0.34325626    -0.13700
C1594       C  0.75251829  0.53761036  0.37987884     0.16700
C1595       C  0.73682736  0.52814552  0.41130726     0.03000
C1596       C  0.71753075  0.52694012  0.40502653    -0.12200
C1597       C  0.71387321  0.53580227  0.36867976    -0.03300
C1598       C  0.72963829  0.54548660  0.33753280     0.02200
C1599       C  0.77283986  0.53844466  0.38442758     0.09000
N1600       N  0.74067474  0.52079477  0.45081605     0.65400
H1601       H  0.70562342  0.51974848  0.42938707     0.18300
N1602       N  0.72605309  0.55355540  0.29878015     0.75900
H1603       H  0.76058843  0.55336328  0.31876296     0.09800
C1604       C  0.77428463  0.52021632  0.38436844     0.03500
C1605       C  0.79361453  0.52153857  0.39031723    -0.05200
C1606       C  0.81193187  0.54085143  0.39560616    -0.23600
C1607       C  0.81046181  0.55917396  0.39427077     0.12800
C1608       C  0.79102841  0.55778322  0.38879463    -0.12700
N1609       N  0.75640028  0.50030162  0.37651721     0.64400
H1610       H  0.79421376  0.50724560  0.39050348     0.12300
N1611       N  0.82844966  0.57933235  0.39824616     0.61100
H1612       H  0.79010231  0.57190617  0.38834754     0.08400
O1613       O  0.71993642  0.54222583  0.26564566    -0.40400
O1614       O  0.73295964  0.57285380  0.29527987    -0.39600
O1615       O  0.75314306  0.53373778  0.47780406    -0.39600
O1616       O  0.72881080  0.50220857  0.46222256    -0.37300
O1617       O  0.83706531  0.58964392  0.36481831    -0.38200
O1618       O  0.83297684  0.58836942  0.43427368    -0.34300
O1619       O  0.74898991  0.49569654  0.33898855    -0.35700
O1620       O  0.75086560  0.48608821  0.40420031    -0.40000
C1621       C  0.59540278  0.58235724  0.33470947    -0.13700
C1622       C  0.60772004  0.60363234  0.34369233     0.16700
C1623       C  0.62792147  0.61111111  0.36014390     0.03000
C1624       C  0.63558713  0.59737767  0.36616402    -0.12200
C1625       C  0.62334108  0.57603547  0.35646796    -0.03300
C1626       C  0.60294147  0.56863895  0.34063653     0.02200
C1627       C  0.59854740  0.61722963  0.33673855     0.09000
N1628       N  0.64092413  0.63261642  0.37038227     0.65400
H1629       H  0.65120431  0.60350456  0.37863725     0.18300
N1630       N  0.58939692  0.54717200  0.33100169     0.75900
H1631       H  0.57959118  0.57622754  0.32337001     0.09800
C1632       C  0.58949435  0.61714390  0.29681180     0.03500
C1633       C  0.57702848  0.62622346  0.29310330    -0.05200
C1634       C  0.57335246  0.63572779  0.32841624    -0.23600
C1635       C  0.58357202  0.63718331  0.36766989     0.12800
C1636       C  0.59596872  0.62782084  0.37159668    -0.12700
N1637       N  0.59225506  0.60724637  0.25995883     0.64400
H1638       H  0.56977951  0.62542003  0.26234257     0.12300
N1639       N  0.58018291  0.64652319  0.40465101     0.61100
H1640       H  0.60250969  0.62771817  0.40267196     0.08400
O1641       O  0.58811964  0.54079395  0.29290154    -0.40400
O1642       O  0.57583872  0.53582212  0.35810868    -0.39600
O1643       O  0.64397274  0.63830811  0.40921029    -0.39600
O1644       O  0.65223040  0.64509490  0.34160767    -0.37300
O1645       O  0.56506697  0.63566054  0.42917217    -0.38200
O1646       O  0.59414629  0.66432710  0.41675308    -0.34300
O1647       O  0.57686565  0.59126669  0.24429911    -0.35700
O1648       O  0.60885933  0.61659356  0.23861919    -0.40000
C1649       C  0.59382256  0.42775309  0.42271746    -0.13700
C1650       C  0.58654866  0.42762026  0.46445309     0.16700
C1651       C  0.59617727  0.44631897  0.48848907     0.03000
C1652       C  0.61136425  0.46475579  0.46947865    -0.12200
C1653       C  0.61690600  0.46537722  0.42614987    -0.03300
C1654       C  0.60859181  0.44637714  0.40320020     0.02200
C1655       C  0.56798547  0.40853150  0.48136009     0.09000
N1656       N  0.58949056  0.44736928  0.53101538     0.65400
H1657       H  0.61773639  0.47898426  0.48806344     0.18300
N1658       N  0.61372981  0.44580663  0.35916946     0.75900
H1659       H  0.58731133  0.41345917  0.40434533     0.09800
C1660       C  0.54929123  0.39814261  0.45747123     0.03500
C1661       C  0.53110264  0.38279438  0.47701349    -0.05200
C1662       C  0.53080855  0.37768373  0.52059092    -0.23600
C1663       C  0.54990577  0.38669483  0.54332182     0.12800
C1664       C  0.56824522  0.40167781  0.52333314    -0.12700
N1665       N  0.54796639  0.40412486  0.41443628     0.64400
H1666       H  0.51680541  0.37589787  0.45857997     0.12300
N1667       N  0.55082120  0.38217245  0.58765145     0.61100
H1668       H  0.58257406  0.40881094  0.54161804     0.08400
O1669       O  0.60166714  0.44530031  0.32994716    -0.40400
O1670       O  0.62806207  0.44202285  0.34993662    -0.39600
O1671       O  0.60157817  0.45069583  0.56236276    -0.39600
O1672       O  0.57357922  0.44913190  0.53616581    -0.37300
O1673       O  0.55682741  0.36955115  0.59784650    -0.38200
O1674       O  0.54974638  0.39370684  0.61616960    -0.34300
O1675       O  0.54610531  0.39219028  0.38371897    -0.35700
O1676       O  0.54435693  0.41882830  0.40805835    -0.40000
C1677       C  0.68084305  0.54368996  0.65446371    -0.13700
C1678       C  0.67327318  0.55637652  0.63859312     0.16700
C1679       C  0.66576221  0.56560663  0.66789914     0.03000
C1680       C  0.66508317  0.56133948  0.71197139    -0.12200
C1681       C  0.67150532  0.54768923  0.72742540    -0.03300
C1682       C  0.67988513  0.53919876  0.69848765     0.02200
C1683       C  0.66999224  0.55678912  0.59152969     0.09000
N1684       N  0.65805077  0.57872728  0.65311824     0.65400
H1685       H  0.65855451  0.56789644  0.73392108     0.18300
N1686       N  0.68707807  0.52565334  0.71328529     0.75900
H1687       H  0.68642509  0.53630159  0.63234834     0.09800
C1688       C  0.68650586  0.56472192  0.56185844     0.03500
C1689       C  0.68231730  0.56257293  0.51748738    -0.05200
C1690       C  0.66175579  0.55235025  0.50178501    -0.23600
C1691       C  0.64525428  0.54443042  0.53196554     0.12800
C1692       C  0.64954198  0.54686989  0.57606011    -0.12700
N1693       N  0.70759707  0.57501425  0.57630841     0.64400
H1694       H  0.69525988  0.56876002  0.49530442     0.12300
N1695       N  0.62398541  0.53279707  0.51876541     0.61100
H1696       H  0.63670025  0.54011460  0.59851927     0.08400
O1697       O  0.70614972  0.53296135  0.72126538    -0.40400
O1698       O  0.67524733  0.50620848  0.71106483    -0.39600
O1699       O  0.63871728  0.57194826  0.65243041    -0.39600
O1700       O  0.67046187  0.59793437  0.64832617    -0.37300
O1701       O  0.61548951  0.51332790  0.51436857    -0.38200
O1702       O  0.61282184  0.54120423  0.51973043    -0.34300
O1703       O  0.71807855  0.56592255  0.57334015    -0.35700
O1704       O  0.71672088  0.59425018  0.58436956    -0.40000
C1705       C  0.66203149  0.56734613  0.16515671    -0.13700
C1706       C  0.67025526  0.55789872  0.13873387     0.16700
C1707       C  0.68067087  0.54841849  0.15752873     0.03000
C1708       C  0.68161160  0.54737684  0.20223413    -0.12200
C1709       C  0.67227006  0.55564245  0.22904508    -0.03300
C1710       C  0.66305572  0.56642630  0.21006543     0.02200
C1711       C  0.66611332  0.55620190  0.09199262     0.09000
N1712       N  0.68888457  0.53829283  0.13164935     0.65400
H1713       H  0.68879211  0.53907520  0.21593073     0.18300
N1714       N  0.65338522  0.57522234  0.23562648     0.75900
H1715       H  0.65405319  0.57474524  0.15081997     0.09800
C1716       C  0.64585363  0.54319721  0.07637246     0.03500
C1717       C  0.64227569  0.54058736  0.03220105    -0.05200
C1718       C  0.65862033  0.55063676  0.00266843    -0.23600
C1719       C  0.67887634  0.56420177  0.01829401     0.12800
C1720       C  0.68247730  0.56676519  0.06280534    -0.12700
N1721       N  0.62892505  0.53162594  0.10508871     0.64400
H1722       H  0.62658581  0.53018383  0.02098148     0.12300
N1723       N  0.69606592  0.57461661  0.98966862     0.61100
H1724       H  0.69813401  0.57676128  0.07466704     0.08400
O1725       O  0.63413460  0.56475460  0.24305197    -0.40400
O1726       O  0.66312701  0.59444890  0.24386600    -0.39600
O1727       O  0.70828524  0.54658214  0.12680340    -0.39600
O1728       O  0.67718338  0.51969206  0.11996851    -0.37300
O1729       O  0.70783102  0.56717352  0.98300664    -0.38200
O1730       O  0.70174013  0.59296516  0.97793477    -0.34300
O1731       O  0.61555245  0.53714519  0.11093513    -0.35700
O1732       O  0.62532365  0.51404029  0.11820619    -0.40000
C1733       C  0.55617587  0.46293645  0.26518316    -0.13700
C1734       C  0.56062778  0.45392716  0.23037044     0.16700
C1735       C  0.58136989  0.46119068  0.21850695     0.03000
C1736       C  0.59743528  0.47678181  0.24279421    -0.12200
C1737       C  0.59317407  0.48511167  0.27950441    -0.03300
C1738       C  0.57217892  0.47840440  0.28993643     0.02200
C1739       C  0.54344118  0.43655774  0.20728785     0.09000
N1740       N  0.58632315  0.45197755  0.18344727     0.65400
H1741       H  0.61332048  0.48157579  0.23403442     0.18300
N1742       N  0.56665855  0.48713656  0.32500607     0.75900
H1743       H  0.54014063  0.45757526  0.27375864     0.09800
C1744       C  0.53272450  0.41665280  0.22574847     0.03500
C1745       C  0.51726981  0.40008985  0.20222757    -0.05200
C1746       C  0.51223106  0.40305133  0.16019910    -0.23600
C1747       C  0.52217901  0.42347544  0.14298475     0.12800
C1748       C  0.53784326  0.43992996  0.16645649    -0.12700
N1749       N  0.53812646  0.41287741  0.26756322     0.64400
H1750       H  0.50981958  0.38471203  0.21640415     0.12300
N1751       N  0.51670830  0.42784874  0.10178630     0.61100
H1752       H  0.54576168  0.45540363  0.15268776     0.08400
O1753       O  0.56613150  0.48043317  0.36251559    -0.40400
O1754       O  0.55674398  0.49649606  0.31717733    -0.39600
O1755       O  0.59361743  0.46210399  0.14917637    -0.39600
O1756       O  0.58628323  0.43510396  0.18897834    -0.37300
O1757       O  0.52868496  0.43140118  0.07025235    -0.38200
O1758       O  0.50219408  0.43198873  0.09887549    -0.34300
O1759       O  0.52653252  0.41055301  0.29915010    -0.35700
O1760       O  0.55301040  0.40937815  0.27197447    -0.40000
C1761       C  0.51119171  0.77952564  0.77205902    -0.13700
C1762       C  0.52777032  0.77999277  0.79486244     0.16700
C1763       C  0.54406984  0.79937697  0.80910760     0.03000
C1764       C  0.54354127  0.81771045  0.80067242    -0.12200
C1765       C  0.52694097  0.81736654  0.77796405    -0.03300
C1766       C  0.51062913  0.79785272  0.76345509     0.02200
C1767       C  0.52818528  0.76023986  0.80186527     0.09000
N1768       N  0.56104461  0.80066325  0.83331640     0.65400
H1769       H  0.55627014  0.83231461  0.81215622     0.18300
N1770       N  0.49332549  0.79623852  0.73992538     0.75900
H1771       H  0.49870229  0.76482959  0.76025478     0.09800
C1772       C  0.51187792  0.74312422  0.82325153     0.03500
C1773       C  0.51209595  0.72436164  0.82712125    -0.05200
C1774       C  0.52861519  0.72223507  0.81086068    -0.23600
C1775       C  0.54500628  0.73942325  0.78958009     0.12800
C1776       C  0.54457673  0.75809040  0.78503945    -0.12700
N1777       N  0.49538380  0.74483739  0.84277531     0.64400
H1778       H  0.49947943  0.71151781  0.84402825     0.12300
N1779       N  0.56161301  0.73786775  0.77023532     0.61100
H1780       H  0.55697615  0.77088432  0.76760732     0.08400
O1781       O  0.47649687  0.79110763  0.75916197    -0.40400
O1782       O  0.49367054  0.79628887  0.69937989    -0.39600
O1783       O  0.57884864  0.80864486  0.81652930    -0.39600
O1784       O  0.55911831  0.79746626  0.87329926    -0.37300
O1785       O  0.56164755  0.73567869  0.73003697    -0.38200
O1786       O  0.57819707  0.74365512  0.79113139    -0.34300
O1787       O  0.47727804  0.73496044  0.82720997    -0.35700
O1788       O  0.49814101  0.75324775  0.87928073    -0.40000
C1789       C  0.51377524  0.74237845  0.32136758    -0.13700
C1790       C  0.52595254  0.75483006  0.28721689     0.16700
C1791       C  0.53719277  0.74797977  0.26226989     0.03000
C1792       C  0.53618796  0.72900969  0.27164844    -0.12200
C1793       C  0.52407308  0.71646414  0.30592194    -0.03300
C1794       C  0.51280322  0.72342412  0.33099874     0.02200
C1795       C  0.52753686  0.77537983  0.27965821     0.09000
N1796       N  0.54943008  0.75992407  0.22663487     0.65400
H1797       H  0.54481780  0.72412852  0.25199677     0.18300
N1798       N  0.50104063  0.71201035  0.36759633     0.75900
H1799       H  0.50545026  0.74765926  0.34136628     0.09800
C1800       C  0.50974810  0.77703519  0.27157668     0.03500
C1801       C  0.51153142  0.79666084  0.26755708    -0.05200
C1802       C  0.53094066  0.81505334  0.27074376    -0.23600
C1803       C  0.54882908  0.81332992  0.27831430     0.12800
C1804       C  0.54694532  0.79363113  0.28301751    -0.12700
N1805       N  0.48981136  0.75887677  0.26603398     0.64400
H1806       H  0.49758601  0.79740911  0.26105784     0.12300
N1807       N  0.56897644  0.83133790  0.28218686     0.61100
H1808       H  0.56069149  0.79260603  0.29003636     0.08400
O1809       O  0.48149530  0.70125429  0.36504200    -0.40400
O1810       O  0.50974661  0.71551185  0.40392839    -0.39600
O1811       O  0.56898655  0.76989558  0.22979553    -0.39600
O1812       O  0.54104948  0.75735176  0.19013663    -0.37300
O1813       O  0.57604425  0.83865700  0.31894227    -0.38200
O1814       O  0.58110936  0.83721583  0.25039790    -0.34300
O1815       O  0.47577046  0.75447657  0.29358612    -0.35700
O1816       O  0.48517785  0.74946564  0.23041171    -0.40000
C1817       C  0.55139149  0.86634980  0.46982257    -0.13700
C1818       C  0.55399759  0.88318188  0.49500823     0.16700
C1819       C  0.55804210  0.90177730  0.47468508     0.03000
C1820       C  0.55772036  0.90268675  0.42980683    -0.12200
C1821       C  0.55346211  0.88529818  0.40446050    -0.03300
C1822       C  0.55102282  0.86719666  0.42486131     0.02200
C1823       C  0.55009862  0.88024535  0.54185597     0.09000
N1824       N  0.56102108  0.91936749  0.49914409     0.65400
H1825       H  0.55999430  0.91684696  0.41477249     0.18300
N1826       N  0.54648145  0.84897355  0.40084985     0.75900
H1827       H  0.54849179  0.85205200  0.48523552     0.09800
C1828       C  0.53020183  0.86576964  0.55717873     0.03500
C1829       C  0.52639324  0.86352777  0.60129612    -0.05200
C1830       C  0.54214891  0.87536425  0.63117573    -0.23600
C1831       C  0.56228127  0.88952332  0.61588486     0.12800
C1832       C  0.56602533  0.89199082  0.57140681    -0.12700
N1833       N  0.51345999  0.85374335  0.52816107     0.64400
H1834       H  0.51083355  0.85257700  0.61223649     0.12300
N1835       N  0.57883132  0.90209819  0.64479349     0.61100
H1836       H  0.58140387  0.90310869  0.55988637     0.08400
O1837       O  0.52803282  0.83671848  0.38901025    -0.40400
O1838       O  0.55959787  0.84288278  0.40004622    -0.39600
O1839       O  0.57910940  0.93470754  0.50371830    -0.39600
O1840       O  0.54553166  0.92127605  0.50859480    -0.37300
O1841       O  0.59009411  0.89520916  0.65941326    -0.38200
O1842       O  0.58509729  0.92130459  0.64743754    -0.34300
O1843       O  0.50770738  0.83480851  0.52202163    -0.35700
O1844       O  0.50235934  0.86099883  0.51443262    -0.40000
C1845       C  0.56718984  0.90265195  0.07020129    -0.13700
C1846       C  0.55833432  0.88532506  0.04280410     0.16700
C1847       C  0.54891917  0.86520977  0.06030946     0.03000
C1848       C  0.54745877  0.86260613  0.10484222    -0.12200
C1849       C  0.55513512  0.87984174  0.13259067    -0.03300
C1850       C  0.56576227  0.90010080  0.11493422     0.02200
C1851       C  0.55618875  0.88818588  0.99658890     0.09000
N1852       N  0.53909389  0.84727607  0.03319038     0.65400
H1853       H  0.53929340  0.84695962  0.11769693     0.18300
N1854       N  0.57345841  0.91816569  0.14159220     0.75900
H1855       H  0.57424731  0.91817316  0.05678011     0.09800
C1856       C  0.54113530  0.89310252  0.98265495     0.03500
C1857       C  0.53760730  0.89371575  0.93887035    -0.05200
C1858       C  0.54867660  0.88923014  0.90812711    -0.23600
C1859       C  0.56443657  0.88518685  0.92206042     0.12800
C1860       C  0.56799564  0.88457428  0.96622700    -0.12700
N1861       N  0.52840174  0.89624280  0.01271769     0.64400
H1862       H  0.52563263  0.89715206  0.92900116     0.12300
N1863       N  0.57622359  0.88072471  0.89202624     0.61100
H1864       H  0.57958673  0.88074586  0.97689708     0.08400
O1865       O  0.56228410  0.92628054  0.14829229    -0.40400
O1866       O  0.59251835  0.92816039  0.15120820    -0.39600
O1867       O  0.54788053  0.83674638  0.02618624    -0.39600
O1868       O  0.52053092  0.84037416  0.02124722    -0.37300
O1869       O  0.59352425  0.89513684  0.87886848    -0.38200
O1870       O  0.56903796  0.86252059  0.87749378    -0.34300
O1871       O  0.53034859  0.91405811  0.01678128    -0.35700
O1872       O  0.51297339  0.88071183  0.02933522    -0.40000
C1873       C  0.75769680  0.21058214  0.71527291    -0.13700
C1874       C  0.75744759  0.22913877  0.72286193     0.16700
C1875       C  0.73840728  0.22797817  0.73313322     0.03000
C1876       C  0.72017499  0.20860621  0.73566679    -0.12200
C1877       C  0.72033226  0.18994968  0.72853288    -0.03300
C1878       C  0.73940174  0.19111065  0.71790860     0.02200
C1879       C  0.77678009  0.24961173  0.71688581     0.09000
N1880       N  0.73745848  0.24634465  0.74260081     0.65400
H1881       H  0.70586322  0.20820598  0.74448668     0.18300
N1882       N  0.74031726  0.17279935  0.70771463     0.75900
H1883       H  0.77208749  0.21124085  0.70609838     0.09800
C1884       C  0.79492858  0.25540919  0.74115753     0.03500
C1885       C  0.81299429  0.27462106  0.73373899    -0.05200
C1886       C  0.81347312  0.28848269  0.70224610    -0.23600
C1887       C  0.79517241  0.28246194  0.67772757     0.12800
C1888       C  0.77719004  0.26328478  0.68532027    -0.12700
N1889       N  0.79503321  0.24222233  0.77446437     0.64400
H1890       H  0.82663735  0.27878948  0.75323420     0.12300
N1891       N  0.79460628  0.29531596  0.64415366     0.61100
H1892       H  0.76348886  0.25888001  0.66582540     0.08400
O1893       O  0.74908513  0.16638756  0.73332343    -0.40400
O1894       O  0.73563088  0.16523675  0.67032187    -0.39600
O1895       O  0.72814898  0.25220998  0.71714634    -0.39600
O1896       O  0.74241552  0.25430933  0.77962166    -0.37300
O1897       O  0.79896866  0.29285520  0.60620972    -0.38200
O1898       O  0.78611402  0.30615424  0.65082046    -0.34300
O1899       O  0.80426385  0.23202251  0.76866015    -0.35700
O1900       O  0.78893951  0.24339919  0.81164282    -0.40000
C1901       C  0.59371611  0.98313824  0.79456298    -0.13700
C1902       C  0.60067783  0.99076794  0.75319189     0.16700
C1903       C  0.59558581  0.97677142  0.71867797     0.03000
C1904       C  0.58294024  0.95536480  0.72576833    -0.12200
C1905       C  0.57524954  0.94769354  0.76696412    -0.03300
C1906       C  0.58115324  0.96179973  0.80177203     0.02200
C1907       C  0.61153514  0.01346130  0.74661757     0.09000
N1908       N  0.60273601  0.98411019  0.67619504     0.65400
H1909       H  0.57843371  0.94483480  0.69876209     0.18300
N1910       N  0.57462151  0.95471848  0.84468700     0.75900
H1911       H  0.59768228  0.99386590  0.82123829     0.09800
C1912       C  0.60010988  0.02337829  0.73700212     0.03500
C1913       C  0.61005371  0.04505343  0.73610540    -0.05200
C1914       C  0.63149975  0.05731157  0.74431633    -0.23600
C1915       C  0.64308746  0.04726862  0.75271600     0.12800
C1916       C  0.63295674  0.02544614  0.75432408    -0.12700
N1917       N  0.57821523  0.01158279  0.72932474     0.64400
H1918       H  0.60084414  0.05229988  0.72886375     0.12300
N1919       N  0.66489682  0.05888059  0.76127121     0.61100
H1920       H  0.64175845  0.01783643  0.76220545     0.08400
O1921       O  0.56041162  0.95695139  0.86157402    -0.40400
O1922       O  0.58548414  0.94986725  0.86797782    -0.39600
O1923       O  0.61906032  0.98474661  0.66269496    -0.39600
O1924       O  0.59082966  0.98599157  0.64987622    -0.37300
O1925       O  0.67135568  0.05959026  0.79909826    -0.38200
O1926       O  0.67753025  0.06407474  0.73043303    -0.34300
O1927       O  0.56576156  0.00788296  0.76000290    -0.35700
O1928       O  0.57144963  0.00822370  0.69123406    -0.40000
C1929       C  0.77258843  0.26432377  0.19063123    -0.13700
C1930       C  0.77321113  0.25075133  0.22127691     0.16700
C1931       C  0.79212177  0.25616864  0.24219017     0.03000
C1932       C  0.81007690  0.27468867  0.23153570    -0.12200
C1933       C  0.80932397  0.28836620  0.20155539    -0.03300
C1934       C  0.79043565  0.28316582  0.18101758     0.02200
C1935       C  0.75444427  0.23027618  0.22816960     0.09000
N1936       N  0.79324272  0.24326400  0.27498033     0.65400
H1937       H  0.82453977  0.27857494  0.24719957     0.18300
N1938       N  0.78950530  0.29604927  0.14796972     0.75900
H1939       H  0.75841531  0.25999600  0.17313630     0.09800
C1940       C  0.73516242  0.22855681  0.23805792     0.03500
C1941       C  0.71752950  0.20892539  0.24180691    -0.05200
C1942       C  0.71870609  0.19067763  0.23684281    -0.23600
C1943       C  0.73814406  0.19246184  0.22728644     0.12800
C1944       C  0.75565849  0.21216611  0.22225640    -0.12700
N1945       N  0.73334669  0.24659868  0.24566091     0.64400
H1946       H  0.70291378  0.20804919  0.24972512     0.12300
N1947       N  0.74047694  0.17458612  0.22210209     0.61100
H1948       H  0.77030309  0.21331078  0.21353505     0.08400
O1949       O  0.79332095  0.29352688  0.10964862    -0.40400
O1950       O  0.78134089  0.30709409  0.15566587    -0.39600
O1951       O  0.80376772  0.23440360  0.26876071    -0.39600
O1952       O  0.78700000  0.24381860  0.31238441    -0.37300
O1953       O  0.74534987  0.17080795  0.18576137    -0.38200
O1954       O  0.74300645  0.16612159  0.25495977    -0.34300
O1955       O  0.72365264  0.25151393  0.21911783    -0.35700
O1956       O  0.73805783  0.25525892  0.28206976    -0.40000
C1957       C  0.63258851  0.02556506  0.24091447    -0.13700
C1958       C  0.61187531  0.01426252  0.25474181     0.16700
C1959       C  0.60170809  0.02508705  0.26779234     0.03000
C1960       C  0.61180530  0.04670713  0.26411896    -0.12200
C1961       C  0.63230471  0.05818910  0.24875431    -0.03300
C1962       C  0.64294056  0.04738656  0.23821873     0.02200
C1963       C  0.60076284  0.99119434  0.25475497     0.09000
N1964       N  0.58137715  0.01440847  0.28634414     0.65400
H1965       H  0.60346229  0.05455306  0.27388371     0.18300
N1966       N  0.66409039  0.05818986  0.22439353     0.75900
H1967       H  0.64065717  0.01738068  0.23158201     0.09800
C1968       C  0.58277226  0.97964083  0.22949428     0.03500
C1969       C  0.57080355  0.95810522  0.23482087    -0.05200
C1970       C  0.57688801  0.94751521  0.26348742    -0.23600
C1971       C  0.59569044  0.95892790  0.28659259     0.12800
C1972       C  0.60732331  0.98065417  0.28240374    -0.12700
N1973       N  0.57688727  0.98948023  0.19723509     0.64400
H1974       H  0.55676279  0.94953718  0.21584745     0.12300
N1975       N  0.60264227  0.94889438  0.31600967     0.61100
H1976       H  0.62120064  0.98939183  0.30175126     0.08400
O1977       O  0.66818892  0.05922322  0.18483699    -0.40400
O1978       O  0.67842767  0.06306166  0.25160416    -0.39600
O1979       O  0.57897694  0.00626066  0.32300555    -0.39600
O1980       O  0.56702745  0.01682240  0.27065319    -0.37300
O1981       O  0.61637343  0.94463821  0.30436194    -0.38200
O1982       O  0.59805397  0.94788553  0.35529277    -0.34300
O1983       O  0.58816956  0.99697093  0.16441491    -0.35700
O1984       O  0.55873397  0.98687412  0.19705830    -0.40000
C1985       C  0.69176352  0.13652871  0.04140849    -0.13700
C1986       C  0.67514642  0.12360696  0.01431464     0.16700
C1987       C  0.65639423  0.10827626  0.03276918     0.03000
C1988       C  0.65427817  0.10670472  0.07754342    -0.12200
C1989       C  0.67056974  0.12026107  0.10499934    -0.03300
C1990       C  0.68966194  0.13505003  0.08626000     0.02200
C1991       C  0.67753922  0.12648270  0.96696122     0.09000
N1992       N  0.63898879  0.09480243  0.00648472     0.65400
H1993       H  0.63950242  0.09511347  0.09074712     0.18300
N1994       N  0.70706103  0.14890591  0.11199339     0.75900
H1995       H  0.70642582  0.14804279  0.02763046     0.09800
C1996       C  0.68254621  0.14563608  0.94786432     0.03500
C1997       C  0.68385704  0.14771394  0.90311549    -0.05200
C1998       C  0.68023564  0.13094710  0.87626002    -0.23600
C1999       C  0.67626185  0.11205020  0.89567815     0.12800
C2000       C  0.67485468  0.10997288  0.94057516    -0.12700
N2001       N  0.68529398  0.16285623  0.97339317     0.64400
H2002       H  0.68700629  0.16241108  0.88939726     0.12300
N2003       N  0.67347775  0.09474119  0.87051553     0.61100
H2004       H  0.67157395  0.09534969  0.95491225     0.08400
O2005       O  0.70938208  0.16640883  0.12224107    -0.40400
O2006       O  0.72218027  0.14573096  0.11570828    -0.39600
O2007       O  0.63295278  0.07561030  0.00509148    -0.39600
O2008       O  0.62768886  0.10138504  0.99064504    -0.37300
O2009       O  0.68892273  0.09244092  0.86314840    -0.38200
O2010       O  0.65536654  0.07985297  0.86343260    -0.34300
O2011       O  0.70318241  0.17856277  0.97751760    -0.35700
O2012       O  0.66959601  0.16382167  0.98560558    -0.40000
C2013       C  0.68842650  0.14193266  0.45211704    -0.13700
C2014       C  0.68157909  0.12183670  0.46792908     0.16700
C2015       C  0.67562496  0.10537723  0.43823885     0.03000
C2016       C  0.67572424  0.10910901  0.39397630    -0.12200
C2017       C  0.68185194  0.12911592  0.37829140    -0.03300
C2018       C  0.68895143  0.14576538  0.40799663     0.02200
C2019       C  0.67857508  0.11823586  0.51520671     0.09000
N2020       N  0.66927512  0.08474612  0.45250222     0.65400
H2021       H  0.67036216  0.09611664  0.37191418     0.18300
N2022       N  0.69661526  0.16670658  0.39408587     0.75900
H2023       H  0.69272938  0.15473504  0.47421308     0.09800
C2024       C  0.69422820  0.13087173  0.54497852     0.03500
C2025       C  0.68973886  0.12933074  0.58897015    -0.05200
C2026       C  0.66982957  0.11523459  0.60466078    -0.23600
C2027       C  0.65440527  0.10191864  0.57494196     0.12800
C2028       C  0.65883586  0.10372146  0.53083954    -0.12700
N2029       N  0.71476629  0.14554986  0.53106799     0.64400
H2030       H  0.70193428  0.13960614  0.61086374     0.12300
N2031       N  0.63405459  0.08665321  0.58866127     0.61100
H2032       H  0.64646473  0.09418906  0.50856751     0.08400
O2033       O  0.71578635  0.17818619  0.38689322    -0.40400
O2034       O  0.68519111  0.17477456  0.39711718    -0.39600
O2035       O  0.65072382  0.07046231  0.44682339    -0.39600
O2036       O  0.68289300  0.08005252  0.46261635    -0.37300
O2037       O  0.61904325  0.08984769  0.58301205    -0.38200
O2038       O  0.63042201  0.06857267  0.59781552    -0.34300
O2039       O  0.72159942  0.16475192  0.53654002    -0.35700
O2040       O  0.72726815  0.13929149  0.52173201    -0.40000
C2041       C  0.44728245  0.24319360  0.56478162    -0.13700
C2042       C  0.46584537  0.24320243  0.57322518     0.16700
C2043       C  0.48345341  0.26177907  0.58689311     0.03000
C2044       C  0.48247523  0.28005635  0.59003355    -0.12200
C2045       C  0.46390002  0.28010493  0.58162988    -0.03300
C2046       C  0.44592965  0.26119906  0.57011366     0.02200
C2047       C  0.46712183  0.22434760  0.56313238     0.09000
N2048       N  0.50232626  0.26223377  0.59853472     0.65400
H2049       H  0.49624795  0.29419055  0.60016864     0.18300
N2050       N  0.42625564  0.25989798  0.56302811     0.75900
H2051       H  0.43375753  0.22917445  0.55343157     0.09800
C2052       C  0.45175537  0.20435695  0.57680527     0.03500
C2053       C  0.45241431  0.18681724  0.56253500    -0.05200
C2054       C  0.46871978  0.18889802  0.53649004    -0.23600
C2055       C  0.48398677  0.20878022  0.52263951     0.12800
C2056       C  0.48293849  0.22625436  0.53556651    -0.12700
N2057       N  0.43580348  0.20164031  0.60621504     0.64400
H2058       H  0.44053460  0.17157150  0.57299743     0.12300
N2059       N  0.49981287  0.21134007  0.49310096     0.61100
H2060       H  0.49417883  0.24129517  0.52292400     0.08400
O2061       O  0.41554624  0.25930912  0.59501805    -0.40400
O2062       O  0.41740749  0.25370949  0.52705135    -0.39600
O2063       O  0.51871740  0.27334394  0.57745992    -0.39600
O2064       O  0.50338243  0.25435058  0.63370985    -0.37300
O2065       O  0.49586381  0.20902109  0.45336491    -0.38200
O2066       O  0.51837546  0.21916433  0.50582663    -0.34300
O2067       O  0.41696972  0.19124646  0.59499277    -0.35700
O2068       O  0.44028404  0.20631589  0.64529134    -0.40000
C2069       C  0.54117607  0.12612674  0.37613498    -0.13700
C2070       C  0.54589661  0.11090633  0.38935756     0.16700
C2071       C  0.53591033  0.09869140  0.42556126     0.03000
C2072       C  0.52202065  0.10239663  0.44907179    -0.12200
C2073       C  0.51782575  0.11821761  0.43701511    -0.03300
C2074       C  0.52737582  0.12997235  0.39958769     0.02200
C2075       C  0.56305610  0.10984143  0.36779481     0.09000
N2076       N  0.53973969  0.08245799  0.43870546     0.65400
H2077       H  0.51467416  0.09297619  0.47718761     0.18300
N2078       N  0.52445634  0.14681966  0.38651659     0.75900
H2079       H  0.54909353  0.13582892  0.34866256     0.09800
C2080       C  0.56163660  0.10423749  0.32429241     0.03500
C2081       C  0.57923499  0.10672522  0.30279211    -0.05200
C2082       C  0.59863785  0.11516926  0.32367697    -0.23600
C2083       C  0.59984075  0.12019156  0.36791729     0.12800
C2084       C  0.58204010  0.11731115  0.38951690    -0.12700
N2085       N  0.54251326  0.09652727  0.30124010     0.64400
H2086       H  0.57775082  0.10267400  0.26901150     0.12300
N2087       N  0.61910770  0.12926022  0.39090662     0.61100
H2088       H  0.58331604  0.12202155  0.42287765     0.08400
O2089       O  0.53463318  0.16426052  0.40489039    -0.40400
O2090       O  0.51502850  0.14546095  0.35181979    -0.39600
O2091       O  0.55043836  0.08475124  0.47195229    -0.39600
O2092       O  0.52981748  0.06478910  0.42117013    -0.37300
O2093       O  0.62257633  0.11829504  0.41692542    -0.38200
O2094       O  0.63060616  0.14878821  0.39161754    -0.34300
O2095       O  0.54063942  0.10774860  0.27313774    -0.35700
O2096       O  0.52889945  0.07754302  0.30398347    -0.40000
C2097       C  0.55916852  0.16243756  0.64634713    -0.13700
C2098       C  0.57680134  0.17116084  0.61986207     0.16700
C2099       C  0.57495611  0.17653567  0.57730723     0.03000
C2100       C  0.55547527  0.17185110  0.56119099    -0.12200
C2101       C  0.53744211  0.16138375  0.58644470    -0.03300
C2102       C  0.53958620  0.15745451  0.63013647     0.02200
C2103       C  0.59534450  0.17012096  0.63429046     0.09000
N2104       N  0.59250128  0.18556059  0.54922220     0.65400
H2105       H  0.55435246  0.17517874  0.52770648     0.18300
N2106       N  0.52195695  0.14725417  0.65784700     0.75900
H2107       H  0.56025735  0.15789553  0.67890823     0.09800
C2108       C  0.60565553  0.17911487  0.67321849     0.03500
C2109       C  0.61958805  0.17349203  0.69077460    -0.05200
C2110       C  0.62339887  0.15878773  0.67027941    -0.23600
C2111       C  0.61406615  0.15094814  0.62963732     0.12800
C2112       C  0.60023473  0.15664037  0.61230998    -0.12700
N2113       N  0.60159243  0.19344193  0.69596525     0.64400
H2114       H  0.62664346  0.17994195  0.72163101     0.12300
N2115       N  0.61688811  0.13575281  0.60708636     0.61100
H2116       H  0.59208776  0.14921383  0.58286898     0.08400
O2117       O  0.51324024  0.12780605  0.66286999    -0.40400
O2118       O  0.51803335  0.15793052  0.68375234    -0.39600
O2119       O  0.59354638  0.17487994  0.51875540    -0.39600
O2120       O  0.60440706  0.20502000  0.54929371    -0.37300
O2121       O  0.63021625  0.14146326  0.57749103    -0.38200
O2122       O  0.60330993  0.11677706  0.61038470    -0.34300
O2123       O  0.59131329  0.18788216  0.73043174    -0.35700
O2124       O  0.61135616  0.21245511  0.68599359    -0.40000
C2125       C  0.48130900  0.22419001  0.02979683    -0.13700
C2126       C  0.46620492  0.22374914  0.05762704     0.16700
C2127       C  0.45118850  0.20438410  0.07510333     0.03000
C2128       C  0.45161530  0.18616557  0.06468959    -0.12200
C2129       C  0.46710982  0.18685216  0.03789696    -0.03300
C2130       C  0.48200465  0.20608620  0.02024175     0.02200
C2131       C  0.46564484  0.24336336  0.06565751     0.09000
N2132       N  0.43581977  0.20302032  0.10460515     0.65400
H2133       H  0.44017248  0.17151146  0.07870799     0.18300
N2134       N  0.49725247  0.20729374  0.99059344     0.75900
H2135       H  0.49234283  0.23858639  0.01437071     0.09800
C2136       C  0.48370166  0.26217706  0.07689745     0.03500
C2137       C  0.48279620  0.28050535  0.08161714    -0.05200
C2138       C  0.46403941  0.28066790  0.07649590    -0.23600
C2139       C  0.44588044  0.26175696  0.06573161     0.12800
C2140       C  0.44700069  0.24358141  0.05950841    -0.12700
N2141       N  0.50303985  0.26290110  0.08474014     0.64400
H2142       H  0.49689514  0.29465185  0.09035897     0.12300
N2143       N  0.42619352  0.26060935  0.06027511     0.61100
H2144       H  0.43312831  0.22952373  0.04954106     0.08400
O2145       O  0.51609370  0.21592807  0.00181628    -0.40400
O2146       O  0.49244928  0.20286642  0.95154375    -0.39600
O2147       O  0.41688521  0.19337026  0.09388774    -0.39600
O2148       O  0.44068787  0.20794415  0.14346016    -0.37300
O2149       O  0.41685204  0.25458391  0.02472929    -0.38200
O2150       O  0.41601533  0.26017164  0.09308438    -0.34300
O2151       O  0.51809708  0.27293182  0.05951753    -0.35700
O2152       O  0.50627849  0.25723874  0.12077576    -0.40000
C2153       C  0.53773701  0.12083131  0.88019317    -0.13700
C2154       C  0.54961305  0.11320621  0.89998789     0.16700
C2155       C  0.54594409  0.10742399  0.94370940     0.03000
C2156       C  0.53074742  0.10939952  0.96653581    -0.12200
C2157       C  0.51898032  0.11723584  0.94690103    -0.03300
C2158       C  0.52250057  0.12276671  0.90289242     0.02200
C2159       C  0.56684453  0.11318267  0.87537599     0.09000
N2160       N  0.55759379  0.09962494  0.96558747     0.65400
H2161       H  0.52849244  0.10513364  0.00020024     0.18300
N2162       N  0.51107531  0.13075977  0.88076781     0.75900
H2163       H  0.54071913  0.12594979  0.84707365     0.09800
C2164       C  0.56360805  0.10416157  0.83408598     0.03500
C2165       C  0.58056926  0.10674079  0.80958047    -0.05200
C2166       C  0.60103967  0.11811261  0.82534295    -0.23600
C2167       C  0.60415820  0.12646794  0.86750380     0.12800
C2168       C  0.58719111  0.12411922  0.89165158    -0.12700
N2169       N  0.54314682  0.09233749  0.81647423     0.64400
H2170       H  0.57762869  0.09999531  0.77767680     0.12300
N2171       N  0.62446093  0.13794725  0.88604061     0.61100
H2172       H  0.59009269  0.13158532  0.92280141     0.08400
O2173       O  0.51903403  0.15013009  0.87560667    -0.40400
O2174       O  0.49469440  0.11847644  0.86063602    -0.39600
O2175       O  0.57033822  0.11048062  0.99458773    -0.39600
O2176       O  0.55209552  0.08060832  0.96234462    -0.37300
O2177       O  0.63101334  0.12880278  0.91024403    -0.38200
O2178       O  0.63409455  0.15756627  0.88467786    -0.34300
O2179       O  0.53797844  0.09925900  0.78455467    -0.35700
O2180       O  0.53178975  0.07361033  0.82753326    -0.40000
C2181       C  0.60121495  0.16152678  0.12304260    -0.13700
C2182       C  0.59161019  0.16894772  0.15120012     0.16700
C2183       C  0.59852892  0.17338832  0.19408739     0.03000
C2184       C  0.61386655  0.16915809  0.20875026    -0.12200
C2185       C  0.62234177  0.16011508  0.18155057    -0.03300
C2186       C  0.61644551  0.15708700  0.13774011     0.02200
C2187       C  0.57195259  0.16784948  0.13736274     0.09000
N2188       N  0.58930056  0.18111624  0.22376176     0.65400
H2189       H  0.61811823  0.17175383  0.24240119     0.18300
N2190       N  0.62486601  0.14847159  0.10820751     0.75900
H2191       H  0.59583916  0.15774778  0.09016597     0.09800
C2192       C  0.57080971  0.17803050  0.10016753     0.03500
C2193       C  0.55140268  0.17258690  0.08229310    -0.05200
C2194       C  0.53287499  0.15692635  0.10078520    -0.23600
C2195       C  0.53408979  0.14797253  0.14016479     0.12800
C2196       C  0.55350451  0.15344304  0.15778269    -0.12700
N2197       N  0.58925263  0.19338436  0.07931502     0.64400
H2198       H  0.55096217  0.17994285  0.05259221     0.12300
N2199       N  0.51595945  0.13202816  0.16097774     0.61100
H2200       H  0.55413038  0.14522895  0.18597093     0.08400
O2201       O  0.64046595  0.16047971  0.08587290    -0.40400
O2202       O  0.61449976  0.12942122  0.09853762    -0.39600
O2203       O  0.57744591  0.16933485  0.25283456    -0.39600
O2204       O  0.59612883  0.20044017  0.22615329    -0.37300
O2205       O  0.51049494  0.11318380  0.15445037    -0.45400
O2206       O  0.50798038  0.13674059  0.19164783    -0.34300
O2207       O  0.59454722  0.18916862  0.04387640    -0.35700
O2208       O  0.59769551  0.21206151  0.09167169    -0.40000
C2209       C  0.43942435  0.10791048  0.82240443    -0.13700
C2210       C  0.45070522  0.12557741  0.79663347     0.16700
C2211       C  0.46198086  0.14522576  0.81654058     0.03000
C2212       C  0.46251881  0.14679441  0.86140764    -0.12200
C2213       C  0.45192072  0.12905121  0.88744335    -0.03300
C2214       C  0.43992680  0.10944145  0.86736506     0.02200
C2215       C  0.45063414  0.12322755  0.74914503     0.09000
N2216       N  0.47379926  0.16365944  0.79172601     0.65400
H2217       H  0.47179344  0.16200174  0.87591114     0.18300
N2218       N  0.42893312  0.09079417  0.89197751     0.75900
H2219       H  0.43035216  0.09276932  0.80752674     0.09800
C2220       C  0.45715952  0.11024456  0.72993208     0.03500
C2221       C  0.45710759  0.10848518  0.68514781    -0.05200
C2222       C  0.45095483  0.11974252  0.65828632    -0.23600
C2223       C  0.44417857  0.13258689  0.67777378     0.12800
C2224       C  0.44393409  0.13405445  0.72270808    -0.12700
N2225       N  0.46498678  0.09960511  0.75536082     0.64400
H2226       H  0.46262675  0.09870763  0.67144689     0.12300
N2227       N  0.43816049  0.14484479  0.65274326     0.61100
H2228       H  0.43857413  0.14383950  0.73703237     0.08400
O2229       O  0.43730978  0.07994351  0.89980547    -0.40400
O2230       O  0.40982259  0.08342907  0.89940801    -0.39600
O2231       O  0.46723902  0.17629797  0.78702921    -0.39600
O2232       O  0.49234148  0.16921049  0.78198312    -0.37300
O2233       O  0.41935553  0.13733998  0.64201261    -0.38200
O2234       O  0.45030321  0.16422368  0.65033550    -0.34300
O2235       O  0.45416149  0.08015278  0.76001367    -0.35700
O2236       O  0.48400794  0.10878001  0.76533487    -0.40000
C2237       C  0.44265311  0.10113863  0.23233193    -0.13700
C2238       C  0.44027292  0.11748069  0.24870317     0.16700
C2239       C  0.43862984  0.13116458  0.21945534     0.03000
C2240       C  0.44033506  0.12890848  0.17521212    -0.12200
C2241       C  0.44350427  0.11305295  0.15884794    -0.03300
C2242       C  0.44395074  0.09862173  0.18797862     0.02200
C2243       C  0.44213736  0.12153588  0.29594776     0.09000
N2244       N  0.43558625  0.14771547  0.23417000     0.65400
H2245       H  0.43976136  0.14007706  0.15368530     0.18300
N2246       N  0.44584361  0.08138024  0.17326385     0.75900
H2247       H  0.44430932  0.09067924  0.25406261     0.09800
C2248       C  0.43061860  0.10580349  0.32635695     0.03500
C2249       C  0.43436531  0.11002349  0.37045700    -0.05200
C2250       C  0.44953081  0.12975203  0.38539625    -0.23600
C2251       C  0.46078091  0.14558219  0.35481193     0.12800
C2252       C  0.45714305  0.14126842  0.31087292    -0.12700
N2253       N  0.41516843  0.08539128  0.31309939     0.64400
H2254       H  0.42560534  0.09757272  0.39305953     0.12300
N2255       N  0.47619349  0.16612005  0.36751769     0.61100
H2256       H  0.46665650  0.15336647  0.28819834     0.08400
O2257       O  0.46310860  0.08201143  0.17614593    -0.40400
O2258       O  0.42965654  0.06431717  0.16500404    -0.39600
O2259       O  0.44965022  0.16634206  0.22834125    -0.39600
O2260       O  0.41761611  0.14384337  0.24484688    -0.37300
O2261       O  0.49509333  0.17101218  0.36830218    -0.38200
O2262       O  0.47144297  0.18022741  0.36968023    -0.34300
O2263       O  0.41823166  0.07030184  0.31911391    -0.35700
O2264       O  0.39710234  0.08184441  0.30414161    -0.40000
C2265       C  0.24039413  0.79391212  0.99002021    -0.13700
C2266       C  0.24053646  0.77717629  0.96951644     0.16700
C2267       C  0.25955300  0.77930828  0.95575846     0.03000
C2268       C  0.27809496  0.79801524  0.96285542    -0.12200
C2269       C  0.27811286  0.81497352  0.98318032    -0.03300
C2270       C  0.25891638  0.81269713  0.99705643     0.02200
C2271       C  0.22061482  0.75780690  0.96166354     0.09000
N2272       N  0.26019536  0.76287848  0.93309665     0.65400
H2273       H  0.29252091  0.79936108  0.95161402     0.18300
N2274       N  0.25793183  0.82903347  0.01933409     0.75900
H2275       H  0.22580086  0.79233941  0.00077971     0.09800
C2276       C  0.21423499  0.74004468  0.98744067     0.03500
C2277       C  0.19549222  0.72182640  0.97840656    -0.05200
C2278       C  0.18269707  0.72110217  0.94438398    -0.23600
C2279       C  0.18901212  0.73899850  0.91887502     0.12800
C2280       C  0.20786585  0.75715896  0.92771325    -0.12700
N2281       N  0.22633576  0.74046521  0.02358920     0.64400
H2282       H  0.19076973  0.70826140  0.99844840     0.12300
N2283       N  0.17712066  0.73858579  0.88233362     0.61100
H2284       H  0.21275722  0.77071925  0.90756926     0.08400
O2285       O  0.25869429  0.82962597  0.05985364    -0.40400
O2286       O  0.25249432  0.84035353  0.99935554    -0.39600
O2287       O  0.25807907  0.76176913  0.89277528    -0.39600
O2288       O  0.26720355  0.75252162  0.95164097    -0.37300
O2289       O  0.16570797  0.74668172  0.88479809    -0.38200
O2290       O  0.18096824  0.73372871  0.84600722    -0.34300
O2291       O  0.22293014  0.74574464  0.05988278    -0.35700
O2292       O  0.23689167  0.73143448  0.02128091    -0.40000
C2293       C  0.37016927  0.97827934  0.01513127    -0.13700
C2294       C  0.38769840  0.99014917  0.98939685     0.16700
C2295       C  0.39495635  0.97993369  0.96227547     0.03000
C2296       C  0.38538262  0.95827566  0.96278753    -0.12200
C2297       C  0.36824384  0.94638390  0.98930591    -0.03300
C2298       C  0.36028307  0.95646414  0.01499167     0.02200
C2299       C  0.40038981  0.01288222  0.99626016     0.09000
N2300       N  0.41217098  0.99144910  0.93418575     0.65400
H2301       H  0.39132092  0.95067335  0.94208921     0.18300
N2302       N  0.34338174  0.94492536  0.04371426     0.75900
H2303       H  0.36476573  0.98597832  0.03687746     0.09800
C2304       C  0.39281907  0.02662897  0.98843194     0.03500
C2305       C  0.40569594  0.04802158  0.99610551    -0.05200
C2306       C  0.42607780  0.05590517  0.01165387    -0.23600
C2307       C  0.43328593  0.04190364  0.02063369     0.12800
C2308       C  0.42049044  0.02070901  0.01275784    -0.12700
N2309       N  0.37234847  0.01917246  0.97179550     0.64400
H2310       H  0.39986848  0.05850672  0.98922462     0.12300
N2311       N  0.45315855  0.04876607  0.03997387     0.61100
H2312       H  0.42615931  0.01016761  0.02048906     0.08400
O2313       O  0.32514988  0.93989853  0.03226530    -0.40400
O2314       O  0.34713847  0.94375551  0.08285202    -0.39600
O2315       O  0.42962908  0.99332807  0.94300673    -0.39600
O2316       O  0.40901271  0.99635964  0.89727020    -0.37300
O2317       O  0.46752972  0.04881834  0.01828036    -0.38200
O2318       O  0.45523211  0.05142741  0.08012903    -0.34300
O2319       O  0.35818145  0.01775135  0.99632614    -0.35700
O2320       O  0.36938723  0.01756942  0.93169941    -0.40000
C2321       C  0.45653825  0.89813859  0.18010752    -0.13700
C2322       C  0.45389894  0.89215588  0.13670123     0.16700
C2323       C  0.46808605  0.88706537  0.11789385     0.03000
C2324       C  0.48338655  0.88641638  0.14326354    -0.12200
C2325       C  0.48498984  0.89075363  0.18759579    -0.03300
C2326       C  0.47177019  0.89742012  0.20560672     0.02200
C2327       C  0.43579059  0.89047151  0.11225096     0.09000
N2328       N  0.46646513  0.88134739  0.07359989     0.65400
H2329       H  0.49352147  0.88165599  0.12833385     0.18300
N2330       N  0.47278918  0.90250554  0.25016763     0.75900
H2331       H  0.44624281  0.90277026  0.19472743     0.09800
C2332       C  0.41530728  0.87841283  0.12787841     0.03500
C2333       C  0.39851627  0.87687021  0.10422154    -0.05200
C2334       C  0.40144741  0.88671101  0.06414856    -0.23600
C2335       C  0.42204159  0.89904775  0.04880253     0.12800
C2336       C  0.43889538  0.90098566  0.07307330    -0.12700
N2337       N  0.41114716  0.86669460  0.16669533     0.64400
H2338       H  0.38298006  0.86713303  0.11668063     0.12300
N2339       N  0.42622094  0.90961993  0.00853326     0.61100
H2340       H  0.45451180  0.91073758  0.06109030     0.08400
O2341       O  0.46306612  0.88822976  0.27722190    -0.40400
O2342       O  0.48053273  0.92126669  0.26152926    -0.39600
O2343       O  0.47923141  0.89412179  0.04692957    -0.39600
O2344       O  0.45516813  0.86254681  0.06282603    -0.37300
O2345       O  0.42995072  0.92817574  0.00737989    -0.38200
O2346       O  0.42990838  0.90188106  0.97589981    -0.34300
O2347       O  0.40399891  0.87141530  0.19884983    -0.35700
O2348       O  0.41110307  0.84965927  0.16635686    -0.40000
C2349       C  0.39217891  0.84006576  0.85787418    -0.13700
C2350       C  0.39992945  0.82983427  0.88341429     0.16700
C2351       C  0.39192272  0.82351224  0.92513950     0.03000
C2352       C  0.37800339  0.82921771  0.94196980    -0.12200
C2353       C  0.37184881  0.84134711  0.91801878    -0.03300
C2354       C  0.37815382  0.84571294  0.87458828     0.02200
C2355       C  0.41945310  0.83054166  0.86984035     0.09000
N2356       N  0.39877723  0.81239310  0.95178060     0.65400
H2357       H  0.37310463  0.82522436  0.97500744     0.18300
N2358       N  0.37149359  0.85690421  0.84767397     0.75900
H2359       H  0.39827934  0.84520400  0.82589547     0.09800
C2360       C  0.42144739  0.82301315  0.82948019     0.03500
C2361       C  0.44128416  0.82897252  0.81324602    -0.05200
C2362       C  0.45920120  0.84255148  0.83656628    -0.23600
C2363       C  0.45713365  0.84865615  0.87828997     0.12800
C2364       C  0.43739366  0.84264767  0.89453372    -0.12700
N2365       N  0.40357179  0.81027277  0.80368748     0.64400
H2366       H  0.44269847  0.82431934  0.78101319     0.12300
N2367       N  0.47503833  0.86202899  0.90349835     0.61100
H2368       H  0.43622990  0.84883113  0.92525659     0.08400
O2369       O  0.35570771  0.84697921  0.82401423    -0.40400
O2370       O  0.38350269  0.87606843  0.84117840    -0.39600
O2371       O  0.40987309  0.82118731  0.98438376    -0.39600
O2372       O  0.39034744  0.79291015  0.94788104    -0.37300
O2373       O  0.48041650  0.88098442  0.90766730    -0.38200
O2374       O  0.48303430  0.85420495  0.92756258    -0.34300
O2375       O  0.40004211  0.81779802  0.77049404    -0.35700
O2376       O  0.39399550  0.79081772  0.80896145    -0.40000
C2377       C  0.22157488  0.74404213  0.47078863    -0.13700
C2378       C  0.22372487  0.76211541  0.45176360     0.16700
C2379       C  0.20699976  0.76106394  0.42818543     0.03000
C2380       C  0.18839394  0.74205634  0.42446427    -0.12200
C2381       C  0.18625859  0.72377979  0.44295360    -0.03300
C2382       C  0.20313670  0.72496676  0.46648337     0.02200
C2383       C  0.24352995  0.78186620  0.45767750     0.09000
N2384       N  0.20907536  0.77883015  0.40578927     0.65400
H2385       H  0.17584428  0.74147497  0.40554197     0.18300
N2386       N  0.20175267  0.70706383  0.48684588     0.75900
H2387       H  0.23432709  0.74477323  0.48923331     0.09800
C2388       C  0.24473901  0.79779576  0.48426876     0.03500
C2389       C  0.26396788  0.81566873  0.49153529    -0.05200
C2390       C  0.28230478  0.81796018  0.47324046    -0.23600
C2391       C  0.28098950  0.80216898  0.44581908     0.12800
C2392       C  0.26168571  0.78426081  0.43846083    -0.12700
N2393       N  0.22681176  0.79553448  0.50616906     0.64400
H2394       H  0.26461829  0.82749736  0.51296546     0.12300
N2395       N  0.29891419  0.80438576  0.42405056     0.61100
H2396       H  0.26083982  0.77213896  0.41766903     0.08400
O2397       O  0.19677232  0.70366406  0.52597562    -0.40400
O2398       O  0.20929496  0.69715097  0.46847232    -0.39600
O2399       O  0.21853212  0.78386228  0.37031552    -0.39600
O2400       O  0.19778443  0.78639711  0.41619028    -0.37300
O2401       O  0.30726778  0.79406517  0.43643553    -0.38200
O2402       O  0.30409024  0.81371244  0.38842417    -0.34300
O2403       O  0.22072611  0.78470500  0.53990909    -0.35700
O2404       O  0.22004500  0.80770527  0.49748552    -0.40000
C2405       C  0.39533070  0.02609370  0.52715767    -0.13700
C2406       C  0.40277167  0.01524859  0.50304636     0.16700
C2407       C  0.42200302  0.02632565  0.48189817     0.03000
C2408       C  0.43387887  0.04793291  0.48648697    -0.12200
C2409       C  0.42684600  0.05891356  0.51169953    -0.03300
C2410       C  0.40711622  0.04778204  0.53153689     0.02200
C2411       C  0.39087615  0.99228798  0.50207586     0.09000
N2412       N  0.42966427  0.01581693  0.45562651     0.65400
H2413       H  0.44878321  0.05612891  0.47045620     0.18300
N2414       N  0.39927250  0.05803349  0.55805759     0.75900
H2415       H  0.38054327  0.01761760  0.54353506     0.09800
C2416       C  0.39654126  0.98064710  0.52885555     0.03500
C2417       C  0.38617564  0.95899786  0.52526943    -0.05200
C2418       C  0.36982002  0.94853393  0.49583391    -0.23600
C2419       C  0.36356124  0.96016304  0.47016317     0.12800
C2420       C  0.37419289  0.98195003  0.47338503    -0.12700
N2421       N  0.41270778  0.99062812  0.56010903     0.64400
H2422       H  0.39101354  0.95029770  0.54557777     0.12300
N2423       N  0.34741976  0.95024713  0.43883464     0.61100
H2424       H  0.36977751  0.99085845  0.45268842     0.08400
O2425       O  0.40130141  0.05803265  0.59832769    -0.40400
O2426       O  0.38708070  0.06349886  0.54216890    -0.39600
O2427       O  0.42629950  0.01447274  0.41567285    -0.39600
O2428       O  0.44321831  0.01197110  0.47047186    -0.37300
O2429       O  0.32948504  0.94728563  0.44684325    -0.38200
O2430       O  0.35192470  0.94782729  0.40098330    -0.34300
O2431       O  0.40834792  0.99451503  0.59688909    -0.35700
O2432       O  0.42992868  0.99147612  0.55425040    -0.40000
C2433       C  0.46063636  0.91454050  0.69235865    -0.13700
C2434       C  0.45365011  0.90421124  0.65282137     0.16700
C2435       C  0.46283190  0.89316262  0.63572702     0.03000
C2436       C  0.47774493  0.89132301  0.65949734    -0.12200
C2437       C  0.48378872  0.90037695  0.70033625    -0.03300
C2438       C  0.47589121  0.91291404  0.71606318     0.02200
C2439       C  0.43571620  0.90341007  0.63057872     0.09000
N2440       N  0.45582034  0.88220594  0.59587982     0.65400
H2441       H  0.48375108  0.88170220  0.64704278     0.18300
N2442       N  0.48200365  0.92272571  0.75720132     0.75900
H2443       H  0.45371652  0.92321447  0.70544058     0.09800
C2444       C  0.41533813  0.88970686  0.64453240     0.03500
C2445       C  0.39849384  0.88557531  0.61791688    -0.05200
C2446       C  0.40162775  0.89486615  0.57716685    -0.23600
C2447       C  0.42204801  0.91013107  0.56521992     0.12800
C2448       C  0.43887735  0.91403844  0.59171522    -0.12700
N2449       N  0.41162430  0.87858314  0.68403858     0.64400
H2450       H  0.38303567  0.87413132  0.62826707     0.12300
N2451       N  0.42605663  0.92163518  0.52617120     0.61100
H2452       H  0.45454371  0.92483768  0.58118612     0.08400
O2453       O  0.47061986  0.91423138  0.78947015    -0.40400
O2454       O  0.49658829  0.94133833  0.75976486    -0.39600
O2455       O  0.46699199  0.88920604  0.56279148    -0.39600
O2456       O  0.44021444  0.86410800  0.59531170    -0.37300
O2457       O  0.42565680  0.93844741  0.52609996    -0.38200
O2458       O  0.43377576  0.91721706  0.49456226    -0.34300
O2459       O  0.40425712  0.88337894  0.71570035    -0.35700
O2460       O  0.41257232  0.86206932  0.68514961    -0.40000
C2461       C  0.31855856  0.86344966  0.70041404    -0.13700
C2462       C  0.31727101  0.88045507  0.71614549     0.16700
C2463       C  0.31737284  0.89491621  0.68650798     0.03000
C2464       C  0.31894395  0.89223463  0.64211297    -0.12200
C2465       C  0.32056990  0.87531253  0.62626239    -0.03300
C2466       C  0.32026163  0.86075988  0.65636514     0.02200
C2467       C  0.31848153  0.88387047  0.76360276     0.09000
N2468       N  0.31584243  0.91237965  0.70100355     0.65400
H2469       H  0.31912523  0.90361106  0.62004579     0.18300
N2470       N  0.32283551  0.84370270  0.64329978     0.75900
H2471       H  0.31923069  0.85259139  0.72273521     0.09800
C2472       C  0.30428655  0.86848490  0.79196264     0.03500
C2473       C  0.30816912  0.87032899  0.83640192    -0.05200
C2474       C  0.32626930  0.88718310  0.85357766    -0.23600
C2475       C  0.33998423  0.90308888  0.82527190     0.12800
C2476       C  0.33595971  0.90129947  0.78091949    -0.12700
N2477       N  0.28616082  0.85052216  0.77596193     0.64400
H2478       H  0.29739958  0.85797293  0.85731077     0.12300
N2479       N  0.35840292  0.92093144  0.84076302     0.61100
H2480       H  0.34719689  0.91309983  0.75966529     0.08400
O2481       O  0.30727612  0.82558108  0.64242616    -0.40400
O2482       O  0.34087351  0.84606539  0.64151800    -0.39600
O2483       O  0.33168690  0.93031273  0.70021983    -0.39600
O2484       O  0.29814664  0.91045948  0.70677159    -0.37300
O2485       O  0.37563918  0.92148392  0.83820594    -0.38200
O2486       O  0.35805340  0.93739353  0.84923087    -0.34300
O2487       O  0.28527829  0.83308616  0.77657662    -0.35700
O2488       O  0.26976363  0.85130121  0.76971436    -0.40000
C2489       C  0.31179569  0.86169056  0.19998030    -0.13700
C2490       C  0.31917264  0.88183124  0.21603944     0.16700
C2491       C  0.32544431  0.89842380  0.18696311     0.03000
C2492       C  0.32520499  0.89484643  0.14264162    -0.12200
C2493       C  0.31906247  0.87489255  0.12641962    -0.03300
C2494       C  0.31168732  0.85806977  0.15572138     0.02200
C2495       C  0.32289071  0.88548741  0.26294975     0.09000
N2496       N  0.33255916  0.91908289  0.20212509     0.65400
H2497       H  0.33072569  0.90793025  0.12101689     0.18300
N2498       N  0.30444309  0.83725849  0.14132276     0.75900
H2499       H  0.30695649  0.84880702  0.22208529     0.09800
C2500       C  0.30652216  0.87712006  0.29291060     0.03500
C2501       C  0.31093380  0.87828733  0.33718359    -0.05200
C2502       C  0.33159939  0.88786683  0.35237152    -0.23600
C2503       C  0.34791754  0.89639992  0.32174621     0.12800
C2504       C  0.34340258  0.89520052  0.27782402    -0.12700
N2505       N  0.28539236  0.86743294  0.27865699     0.64400
H2506       H  0.29811283  0.87164392  0.35969059     0.12300
N2507       N  0.36920240  0.90521217  0.33422212     0.61100
H2508       H  0.35608184  0.90112532  0.25494453     0.08400
O2509       O  0.28532182  0.82543558  0.13399909    -0.40400
O2510       O  0.31627015  0.82962771  0.14384855    -0.39600
O2511       O  0.35180816  0.93176217  0.20490281    -0.39600
O2512       O  0.31984514  0.92559643  0.20574466    -0.37300
O2513       O  0.37737388  0.89383530  0.33505263    -0.38200
O2514       O  0.38068671  0.92472253  0.33565889    -0.34300
O2515       O  0.27345512  0.84817778  0.28413198    -0.35700
O2516       O  0.27895504  0.87788000  0.25844091    -0.40000
C2517       C  0.40128259  0.83044606  0.42751396    -0.13700
C2518       C  0.41149505  0.84070074  0.38966959     0.16700
C2519       C  0.40546969  0.85373372  0.36892703     0.03000
C2520       C  0.39004611  0.85690506  0.38674581    -0.12200
C2521       C  0.38062325  0.84779903  0.42605766    -0.03300
C2522       C  0.38590991  0.83383526  0.44580242     0.02200
C2523       C  0.42927762  0.83895860  0.37298573     0.09000
N2524       N  0.41640188  0.86565284  0.33210710     0.65400
H2525       H  0.38652155  0.86771102  0.37095267     0.18300
N2526       N  0.37625604  0.82334513  0.48482175     0.75900
H2527       H  0.40557222  0.82015291  0.44337172     0.09800
C2528       C  0.44777362  0.84638512  0.39692392     0.03500
C2529       C  0.46585977  0.84926514  0.37675841    -0.05200
C2530       C  0.46592141  0.84490879  0.33274702    -0.23600
C2531       C  0.44672859  0.83499900  0.31038306     0.12800
C2532       C  0.42868777  0.83227830  0.33057166    -0.12700
N2533       N  0.44897231  0.85296876  0.44052217     0.64400
H2534       H  0.48023328  0.85640069  0.39496065     0.12300
N2535       N  0.44544139  0.82886562  0.26642333     0.61100
H2536       H  0.41436321  0.82592622  0.31231532     0.08400
O2537       O  0.38645289  0.82871406  0.51951561    -0.40400
O2538       O  0.35908242  0.80657141  0.48328715    -0.39600
O2539       O  0.40806428  0.86034117  0.29546702    -0.39600
O2540       O  0.43185067  0.88361715  0.33739397    -0.37300
O2541       O  0.44290850  0.81114328  0.25754089    -0.38200
O2542       O  0.44311232  0.83939437  0.23735573    -0.34300
O2543       O  0.44971323  0.84188641  0.47045660    -0.35700
O2544       O  0.45296889  0.87128138  0.44852527    -0.40000
loop_ 
_geom_bond_atom_site_label_1 
_geom_bond_atom_site_label_2 
_geom_bond_distance 
_geom_bond_site_symmetry_2 
_ccdc_geom_bond_type 
O1          Cr19   1.995       .  S
O1            C9   1.266       .  A
O2          Cr19   2.006       .  S
O2            C3   1.268       .  A
C3            O4   1.265       .  A
C3         C2390   1.483       .  S
O4          Cr20   1.988       .  S
O5          Cr20   2.016       .  S
O5            C6   1.264       .  A
C6            O7   1.258       .  A
C6         C2521   1.490       .  S
O7          Cr21   1.970       .  S
O8          Cr21   2.005       .  S
O8            C9   1.267       .  A
C9         C2502   1.497       .  S
O10         Cr19   2.019       .  S
O10          C18   1.265       .  A
O11         Cr19   2.007       .  S
O11          C12   1.268       .  A
C12          O13   1.264       .  A
C12        C2465   1.499       .  S
O13         Cr20   2.003       .  S
O14         Cr20   1.979       .  S
O14          C15   1.263       .  A
C15          O16   1.267       .  A
C15        C2446   1.486       .  S
O16         Cr21   2.006       .  S
O17         Cr21   1.962       .  S
O17          C18   1.255       .  A
C18        C2418   1.477       .  S
Cr19         O22   1.770       .  S
Cr20         O22   1.769       .  S
Cr21         O22   1.759       .  S
O23         Cr41   1.995       .  S
O23          C31   1.266       .  A
O24         Cr41   2.016       .  S
O24          C25   1.267       .  A
C25          O26   1.261       .  A
C25        C2269   1.488       .  S
O26         Cr42   1.974   1_556  S
O27         Cr42   2.005   1_556  S
O27          C28   1.266       .  A
C28          O29   1.259       .  A
C28        C2353   1.490       .  S
O29         Cr43   1.980       .  S
O30         Cr43   2.007       .  S
O30          C31   1.265       .  A
C31        C2474   1.492       .  S
O32         Cr41   2.012       .  S
O32          C40   1.265       .  A
O33         Cr41   1.989   1_554  S
O33          C34   1.264       .  A
C34          O35   1.265       .  A
C34        C2493   1.492       .  S
O35         Cr42   2.009       .  S
O36         Cr42   1.979       .  S
O36          C37   1.263       .  A
C37          O38   1.267   1_554  A
C37        C2334   1.494       .  S
O38         Cr43   2.016       .  S
O39         Cr43   1.969       .  S
O39          C40   1.260       .  A
C40        C2297   1.473       .  S
Cr41         O44   1.775       .  S
Cr42         O44   1.769   1_554  S
Cr43         O44   1.771       .  S
O45         Cr63   1.980       .  S
O45          C53   1.264       .  A
O46         Cr63   2.022       .  S
O46          C47   1.269       .  A
C47          O48   1.260       .  A
C47        C2129   1.481       .  S
O48         Cr64   1.971   1_554  S
O49         Cr64   2.018   1_554  S
O49          C50   1.269       .  A
C50          O51   1.256       .  A
C50        C2194   1.488       .  S
O51         Cr65   1.965       .  S
O52         Cr65   2.011       .  S
O52          C53   1.267       .  A
C53        C2241   1.489       .  S
O54         Cr63   2.019       .  S
O54          C62   1.267       .  A
O55         Cr63   1.984   1_556  S
O55          C56   1.262       .  A
C56          O57   1.267       .  A
C56        C2213   1.487       .  S
O57         Cr64   2.005       .  S
O58         Cr64   1.971       .  S
O58          C59   1.257       .  A
C59          O60   1.268   1_556  A
C59        C2157   1.491       .  S
O60         Cr65   2.019       .  S
O61         Cr65   1.963       .  S
O61          C62   1.257       .  A
C62        C2306   1.480       .  S
Cr63         O66   1.770       .  S
Cr64         O66   1.768   1_556  S
Cr65         O66   1.764       .  S
O67         Cr85   1.988       .  S
O67          C75   1.264       .  A
O68         Cr85   2.004       .  S
O68          C69   1.265       .  A
C69          O70   1.259       .  A
C69        C2054   1.468       .  S
O70         Cr86   1.966       .  S
O71         Cr86   2.011       .  S
O71          C72   1.267       .  A
C72          O73   1.258       .  A
C72        C2101   1.487       .  S
O73         Cr87   1.974       .  S
O74         Cr87   2.008       .  S
O74          C75   1.269       .  A
C75        C2222   1.493       .  S
O76         Cr85   2.014       .  S
O76          C84   1.265       .  A
O77         Cr85   1.989       .  S
O77          C78   1.265       .  A
C78          O79   1.265       .  A
C78        C2250   1.490       .  S
O79         Cr86   2.003       .  S
O80         Cr86   1.970       .  S
O80          C81   1.258       .  A
C81          O82   1.267       .  A
C81        C2073   1.483       .  S
O82         Cr87   2.010       .  S
O83         Cr87   1.973       .  S
O83          C84   1.259       .  A
C84        C2409   1.484       .  S
Cr85         O88   1.771       .  S
Cr86         O88   1.767       .  S
Cr87         O88   1.761       .  S
O89        Cr107   1.990       .  S
O89          C97   1.263       .  A
O90        Cr107   2.017       .  S
O90          C91   1.268       .  A
C91          O92   1.259       .  A
C91        C1942   1.480       .  S
O92        Cr108   1.959       .  S
O93        Cr108   2.007       .  S
O93          C94   1.266       .  A
C94          O95   1.259       .  A
C94        C2185   1.487       .  S
O95        Cr109   1.979       .  S
O96        Cr109   2.005       .  S
O96          C97   1.267       .  A
C97        C1989   1.493       .  S
O98        Cr107   2.026       .  S
O98         C106   1.268       .  A
O99        Cr107   1.992       .  S
O99         C100   1.264       .  A
C100        O101   1.264       .  A
C100       C2017   1.489       .  S
O101       Cr108   2.002       .  S
O102       Cr108   1.976       .  S
O102        C103   1.260       .  A
C103        O104   1.267       .  A
C103       C2082   1.487       .  S
O104       Cr109   2.006       .  S
O105       Cr109   1.960       .  S
O105        C106   1.258       .  A
C106       C1961   1.489       .  S
Cr107       O110   1.772       .  S
Cr108       O110   1.764       .  S
Cr109       O110   1.760       .  S
O111       Cr129   1.978       .  S
O111        C119   1.265       .  A
O112       Cr129   2.031       .  S
O112        C113   1.271       .  A
C113        O114   1.261       .  A
C113       C1877   1.492       .  S
O114       Cr130   1.972       .  S
O115       Cr130   2.020       .  S
O115        C116   1.268       .  A
C116        O117   1.256       .  A
C116       C2110   1.491       .  S
O117       Cr131   1.966       .  S
O118       Cr131   2.017       .  S
O118        C119   1.269       .  A
C119       C2026   1.492       .  S
O120       Cr129   2.022       .  S
O120        C128   1.266       .  A
O121       Cr129   1.988       .  S
O121        C122   1.263       .  A
C122        O123   1.268       .  A
C122       C1998   1.492       .  S
O123       Cr130   2.008       .  S
O124       Cr130   1.970       .  S
O124        C125   1.258       .  A
C125        O126   1.271       .  A
C125       C2166   1.494       .  S
O126       Cr131   2.024       .  S
O127       Cr131   1.963       .  S
O127        C128   1.257       .  A
C128       C1914   1.484       .  S
Cr129       O132   1.773       .  S
Cr130       O132   1.766       .  S
Cr131       O132   1.762       .  S
O133       Cr151   1.984       .  S
O133        C141   1.262       .  A
O134       Cr151   2.026       .  S
O134        C135   1.270       .  A
C135        O136   1.260       .  A
C135       C1802   1.492       .  S
O136       Cr152   1.968       .  S
O137       Cr152   2.016       .  S
O137        C138   1.267       .  A
C138        O139   1.260       .  A
C138       C2530   1.487       .  S
O139       Cr153   1.971       .  S
O140       Cr153   2.007       .  S
O140        C141   1.267       .  A
C141       C1821   1.481       .  S
O142       Cr151   2.026       .  S
O142        C150   1.268       .  A
O143       Cr151   1.982       .  S
O143        C144   1.261       .  A
C144        O145   1.267       .  A
C144       C1849   1.480       .  S
O145       Cr152   2.004       .  S
O146       Cr152   1.977       .  S
O146        C147   1.260       .  A
C147        O148   1.267       .  A
C147       C2325   1.493       .  S
O148       Cr153   2.016       .  S
O149       Cr153   1.966       .  S
O149        C150   1.259       .  A
C150       C1970   1.481       .  S
Cr151       O154   1.772       .  S
Cr152       O154   1.763       .  S
Cr153       O154   1.758       .  S
O155       Cr173   2.025       .  S
O155        C163   1.271       .  A
O156       Cr173   1.987       .  S
O156        C157   1.262       .  A
C157        O158   1.265       .  A
C157       C1765   1.500       .  S
O158       Cr174   2.009       .  S
O159       Cr174   1.987       .  S
O159        C160   1.260       .  A
C160        O161   1.262       .  A
C160       C2362   1.472       .  S
O161       Cr175   1.994       .  S
O162       Cr175   1.949       .  S
O162        C163   1.258       .  A
C163       C1858   1.479       .  S
O164       Cr173   1.985       .  S
O164        C172   1.258       .  A
O165       Cr173   2.020       .  S
O165        C166   1.268       .  A
C166        O167   1.259       .  A
C166       C1830   1.483       .  S
O167       Cr174   1.962       .  S
O168       Cr174   1.998       .  S
O168        C169   1.267       .  A
C169        O170   1.262       .  A
C169       C2437   1.471       .  S
O170       Cr175   1.981       .  S
O171       Cr175   1.997       .  S
O171        C172   1.260       .  A
C172       C1905   1.479       .  S
Cr173       O176   1.778       .  S
Cr174       O176   1.771       .  S
Cr175       O176   1.775       .  S
O177       Cr195   1.992       .  S
O177        C185   1.266       .  A
O178       Cr195   2.021       .  S
O178        C179   1.268       .  A
C179        O180   1.260       .  A
C179       C1597   1.476       .  S
O180       Cr196   1.978       .  S
O181       Cr196   2.017       .  S
O181        C182   1.266       .  A
C182        O183   1.260       .  A
C182       C1653   1.490       .  S
O183       Cr197   1.972       .  S
O184       Cr197   2.005       .  S
O184        C185   1.267       .  A
C185       C1690   1.495       .  S
O186       Cr195   2.018       .  S
O186        C194   1.267       .  A
O187       Cr195   1.988       .  S
O187        C188   1.263       .  A
C188        O189   1.267       .  A
C188       C1709   1.484       .  S
O189       Cr196   2.005       .  S
O190       Cr196   1.971       .  S
O190        C191   1.260       .  A
C191        O192   1.265       .  A
C191       C1737   1.482       .  S
O192       Cr197   2.006       .  S
O193       Cr197   1.971       .  S
O193        C194   1.258       .  A
C194       C1625   1.492       .  S
Cr195       O198   1.770       .  S
Cr196       O198   1.766       .  S
Cr197       O198   1.761       .  S
O199       Cr217   2.024       .  S
O199        C207   1.271       .  A
O200       Cr217   1.991       .  S
O200        C201   1.262       .  A
C201        O202   1.262       .  A
C201       C1485   1.497       .  S
O202       Cr218   1.998       .  S
O203       Cr218   1.996       .  S
O203        C204   1.261       .  A
C204        O205   1.259       .  A
C204       C1541   1.474       .  S
O205       Cr219   1.987       .  S
O206       Cr219   1.956       .  S
O206        C207   1.260       .  A
C207       C1718   1.481   1_556  S
O208       Cr217   2.001       .  S
O208        C216   1.261       .  A
O209       Cr217   2.013       .  S
O209        C210   1.267       .  A
C210        O211   1.260       .  A
C210       C1681   1.476       .  S
O211       Cr218   1.973       .  S
O212       Cr218   2.000       .  S
O212        C213   1.267       .  A
C213        O214   1.264       .  A
C213       C1578   1.470       .  S
O214       Cr219   1.983       .  S
O215       Cr219   1.997       .  S
O215        C216   1.259       .  A
C216       C1513   1.495       .  S
Cr217       O220   1.784       .  S
Cr218       O220   1.783       .  S
Cr219       O220   1.780       .  S
O221       Cr239   1.982       .  S
O221        C229   1.262   1_554  A
O222       Cr239   2.022       .  S
O222        C223   1.269       .  A
C223        O224   1.262       .  A
C223       C2138   1.493       .  S
O224       Cr240   1.975       .  S
O225       Cr240   2.010       .  S
O225        C226   1.267       .  A
C226        O227   1.260       .  A
C226       C1550   1.492       .  S
O227       Cr241   1.981       .  S
O228       Cr241   1.991       .  S
O228        C229   1.264   1_554  A
C229       C1429   1.483       .  S
O230       Cr239   2.024       .  S
O230        C238   1.268       .  A
O231       Cr239   1.992       .  S
O231        C232   1.264       .  A
C232        O233   1.266       .  A
C232       C1457   1.490       .  S
O233       Cr240   2.000       .  S
O234       Cr240   1.978       .  S
O234        C235   1.262       .  A
C235        O236   1.263       .  A
C235       C1746   1.483       .  S
O236       Cr241   1.998       .  S
O237       Cr241   1.968       .  S
O237        C238   1.259       .  A
C238       C1401   1.491       .  S
Cr239       O242   1.772       .  S
Cr240       O242   1.763       .  S
Cr241       O242   1.764       .  S
O243       Cr261   1.984       .  S
O243        C251   1.263       .  A
O244       Cr261   2.003       .  S
O244        C245   1.264       .  A
C245        O246   1.262       .  A
C245       C2045   1.479       .  S
O246       Cr262   1.971       .  S
O247       Cr262   2.016       .  S
O247        C248   1.266       .  A
C248        O249   1.260       .  A
C248       C1662   1.490       .  S
O249       Cr263   1.972       .  S
O250       Cr263   2.009       .  S
O250        C251   1.270       .  A
C251       C1466   1.491       .  S
O252       Cr261   2.007       .  S
O252        C260   1.263       .  A
O253       Cr261   1.983       .  S
O253        C254   1.262       .  A
C254        O255   1.266       .  A
C254       C1438   1.478       .  S
O255       Cr262   1.997       .  S
O256       Cr262   1.972       .  S
O256        C257   1.260       .  A
C257        O258   1.267       .  A
C257       C1569   1.486       .  S
O258       Cr263   2.014       .  S
O259       Cr263   1.966       .  S
O259        C260   1.258       .  A
C260       C1373   1.482       .  S
Cr261       O264   1.773       .  S
Cr262       O264   1.765       .  S
Cr263       O264   1.757       .  S
O265       Cr283   2.037       .  S
O265        C273   1.274       .  A
O266       Cr283   1.983       .  S
O266        C267   1.260       .  A
C267        O268   1.262       .  A
C267       C1793   1.493       .  S
O268       Cr284   2.002       .  S
O269       Cr284   1.990       .  S
O269        C270   1.262       .  A
C270        O271   1.262       .  A
C270       C1345   1.472       .  S
O271       Cr285   1.991       .  S
O272       Cr285   1.958       .  S
O272        C273   1.261       .  A
C273       C1298   1.491       .  S
O274       Cr283   1.995       .  S
O274        C282   1.258       .  A
O275       Cr283   2.025       .  S
O275        C276   1.272       .  A
C276        O277   1.259       .  A
C276       C1270   1.487       .  S
O277       Cr284   1.962       .  S
O278       Cr284   1.999       .  S
O278        C279   1.267       .  A
C279        O280   1.264       .  A
C279       C1317   1.485       .  S
O280       Cr285   1.994       .  S
O281       Cr285   1.985       .  S
O281        C282   1.259       .  A
C282       C1634   1.482       .  S
Cr283       O286   1.779       .  S
Cr284       O286   1.775       .  S
Cr285       O286   1.772       .  S
O287       Cr305   1.980       .  S
O287        C295   1.263       .  A
O288       Cr305   2.032       .  S
O288        C289   1.272       .  A
C289        O290   1.263       .  A
C289       C1774   1.494       .  S
O290       Cr306   1.981       .  S
O291       Cr306   2.018       .  S
O291        C292   1.266       .  A
C292        O293   1.260       .  A
C292       C1242   1.491       .  S
O293       Cr307   1.973       .  S
O294       Cr307   2.018       .  S
O294        C295   1.269       .  A
C295       C1261   1.489       .  S
O296       Cr305   2.031       .  S
O296        C304   1.269       .  A
O297       Cr305   1.986       .  S
O297        C298   1.262       .  A
C298        O299   1.266       .  A
C298       C1289   1.484       .  S
O299       Cr306   2.009       .  S
O300       Cr306   1.980       .  S
O300        C301   1.261       .  A
C301        O302   1.269       .  A
C301       C1205   1.497       .  S
O302       Cr307   2.020       .  S
O303       Cr307   1.971       .  S
O303        C304   1.259       .  A
C304       C1522   1.499       .  S
Cr305       O308   1.774       .  S
Cr306       O308   1.774       .  S
Cr307       O308   1.765       .  S
O309       Cr327   1.982       .  S
O309        C317   1.264       .  A
O310       Cr327   2.018       .  S
O310        C311   1.266       .  A
C311        O312   1.262       .  A
C311       C1130   1.493       .  S
O312       Cr328   1.981       .  S
O313       Cr328   2.023       .  S
O313        C314   1.270       .  A
C314        O315   1.258       .  A
C314       C1354   1.492       .  S
O315       Cr329   1.968       .  S
O316       Cr329   2.011       .  S
O316        C317   1.269       .  A
C317       C1177   1.485       .  S
O318       Cr327   2.021       .  S
O318        C326   1.266       .  A
O319       Cr327   1.981       .  S
O319        C320   1.263       .  A
C320        O321   1.269       .  A
C320       C1149   1.486   1_554  S
O321       Cr328   2.008       .  S
O322       Cr328   1.983       .  S
O322        C323   1.260       .  A
C323        O324   1.267       .  A
C323       C1214   1.497       .  S
O324       Cr329   2.013       .  S
O325       Cr329   1.971       .  S
O325        C326   1.258       .  A
C326       C1410   1.479       .  S
Cr327       O330   1.774       .  S
Cr328       O330   1.767       .  S
Cr329       O330   1.761       .  S
O331       Cr349   1.990       .  S
O331        C339   1.266       .  A
O332       Cr349   2.005       .  S
O332        C333   1.265       .  A
C333        O334   1.264       .  A
C333       C1102   1.488       .  S
O334       Cr350   1.983       .  S
O335       Cr350   2.008       .  S
O335        C336   1.265       .  A
C336        O337   1.262       .  A
C336       C1233   1.492       .  S
O337       Cr351   1.979       .  S
O338       Cr351   2.006       .  S
O338        C339   1.269       .  A
C339       C1158   1.492       .  S
O340       Cr349   2.000       .  S
O340        C348   1.260       .  A
O341       Cr349   1.999       .  S
O341        C342   1.264       .  A
C342        O343   1.265       .  A
C342       C1186   1.486       .  S
O343       Cr350   1.994       .  S
O344       Cr350   1.983       .  S
O344        C345   1.263       .  A
C345        O346   1.265       .  A
C345       C1326   1.492       .  S
O346       Cr351   2.007       .  S
O347       Cr351   1.973       .  S
O347        C348   1.257       .  A
C348       C1382   1.463       .  S
Cr349       O352   1.776       .  S
Cr350       O352   1.764       .  S
Cr351       O352   1.761       .  S
O353       Cr371   1.980       .  S
O353        C361   1.264       .  A
O354       Cr371   2.020       .  S
O354        C355   1.269       .  A
C355        O356   1.260       .  A
C355       C1121   1.479       .  S
O356       Cr372   1.970       .  S
O357       Cr372   2.012       .  S
O357        C358   1.268       .  A
C358        O359   1.260       .  A
C358        C981   1.490       .  S
O359       Cr373   1.976       .  S
O360       Cr373   2.017       .  S
O360        C361   1.269       .  A
C361       C1037   1.493       .  S
O362       Cr371   2.011       .  S
O362        C370   1.266       .  A
O363       Cr371   1.994       .  S
O363        C364   1.263       .  A
C364        O365   1.266       .  A
C364       C1074   1.494       .  S
O365       Cr372   2.004       .  S
O366       Cr372   1.968       .  S
O366        C367   1.259       .  A
C367        O368   1.266       .  A
C367       C1009   1.487       .  S
O368       Cr373   2.017       .  S
O369       Cr373   1.975       .  S
O369        C370   1.258       .  A
C370        C962   1.479       .  S
Cr371       O374   1.771       .  S
Cr372       O374   1.765       .  S
Cr373       O374   1.769       .  S
O375       Cr393   1.989       .  S
O375        C383   1.263       .  A
O376       Cr393   2.023       .  S
O376        C377   1.271       .  A
C377        O378   1.260       .  A
C377       C1093   1.478       .  S
O378       Cr394   1.965       .  S
O379       Cr394   2.016       .  S
O379        C380   1.268       .  A
C380        O381   1.258       .  A
C380        C897   1.488       .  S
O381       Cr395   1.972       .  S
O382       Cr395   2.009       .  S
O382        C383   1.268       .  A
C383       C1065   1.495       .  S
O384       Cr393   2.029       .  S
O384        C392   1.271       .  A
O385       Cr393   1.988       .  S
O385        C386   1.263       .  A
C386        O387   1.265       .  A
C386       C1046   1.493       .  S
O387       Cr394   2.006       .  S
O388       Cr394   1.970       .  S
O388        C389   1.258       .  A
C389        O390   1.268       .  A
C389        C934   1.488       .  S
O390       Cr395   2.015       .  S
O391       Cr395   1.965       .  S
O391        C392   1.257       .  A
C392        C878   1.494       .  S
Cr393       O396   1.771       .  S
Cr394       O396   1.770       .  S
Cr395       O396   1.764       .  S
O397       Cr415   1.990       .  S
O397        C405   1.264       .  A
O398       Cr415   2.013       .  S
O398        C399   1.267       .  A
C399        O400   1.259       .  A
C399       C2381   1.485       .  S
O400       Cr416   1.977       .  S
O401       Cr416   2.007       .  S
O401        C402   1.267       .  A
C402        O403   1.259       .  A
C402        C906   1.489       .  S
O403       Cr417   1.978       .  S
O404       Cr417   2.003       .  S
O404        C405   1.267       .  A
C405        C813   1.491       .  S
O406       Cr415   2.020       .  S
O406        C414   1.268       .  A
O407       Cr415   1.986       .  S
O407        C408   1.266       .  A
C408        O409   1.268       .  A
C408        C841   1.493       .  S
O409       Cr416   2.012       .  S
O410       Cr416   1.974       .  S
O410        C411   1.261       .  A
C411        O412   1.265       .  A
C411       C1018   1.485       .  S
O412       Cr417   2.006       .  S
O413       Cr417   1.978       .  S
O413        C414   1.259       .  A
C414        C785   1.492       .  S
Cr415       O418   1.770       .  S
Cr416       O418   1.765       .  S
Cr417       O418   1.766       .  S
O419       Cr437   1.983       .  S
O419        C427   1.265   1_556  A
O420       Cr437   2.025       .  S
O420        C421   1.269       .  A
C421        O422   1.260       .  A
C421       C2278   1.478       .  S
O422       Cr438   1.973       .  S
O423       Cr438   2.009       .  S
O423        C424   1.266       .  A
C424        O425   1.259       .  A
C424        C990   1.489       .  S
O425       Cr439   1.979       .  S
O426       Cr439   2.013   1_554  S
O426        C427   1.268       .  A
C427        C850   1.493       .  S
O428       Cr437   2.022       .  S
O428        C436   1.266       .  A
O429       Cr437   1.994       .  S
O429        C430   1.264       .  A
C430        O431   1.266       .  A
C430        C822   1.491       .  S
O431       Cr438   2.004       .  S
O432       Cr438   1.974       .  S
O432        C433   1.260       .  A
C433        O434   1.269       .  A
C433        C925   1.487       .  S
O434       Cr439   2.011       .  S
O435       Cr439   1.968       .  S
O435        C436   1.256       .  A
C436        C757   1.479       .  S
Cr437       O440   1.771       .  S
Cr438       O440   1.763       .  S
Cr439       O440   1.762       .  S
O441       Cr459   1.996       .  S
O441        C449   1.265       .  A
O442       Cr459   2.023       .  S
O442        C443   1.269       .  A
C443        O444   1.262       .  A
C443       C1606   1.493       .  S
O444       Cr460   1.973       .  S
O445       Cr460   1.999       .  S
O445        C446   1.263       .  A
C446        O447   1.260       .  A
C446        C738   1.487       .  S
O447       Cr461   1.978       .  S
O448       Cr461   2.011       .  S
O448        C449   1.269       .  A
C449        C682   1.497       .  S
O450       Cr459   2.023       .  S
O450        C458   1.269       .  A
O451       Cr459   1.994       .  S
O451        C452   1.266       .  A
C452        O453   1.262       .  A
C452        C645   1.489       .  S
O453       Cr460   1.996       .  S
O454       Cr460   1.986       .  S
O454        C455   1.263       .  A
C455        O456   1.268       .  A
C455        C701   1.493       .  S
O456       Cr461   2.016       .  S
O457       Cr461   1.975       .  S
O457        C458   1.259       .  A
C458        C794   1.489       .  S
Cr459       O462   1.774       .  S
Cr460       O462   1.767       .  S
Cr461       O462   1.764       .  S
O463       Cr481   1.989       .  S
O463        C471   1.265       .  A
O464       Cr481   2.028       .  S
O464        C465   1.271       .  A
C465        O466   1.263       .  A
C465       C1494   1.491       .  S
O466       Cr482   1.976       .  S
O467       Cr482   2.021       .  S
O467        C468   1.269       .  A
C468        O469   1.261       .  A
C468        C617   1.494       .  S
O469       Cr483   1.981       .  S
O470       Cr483   2.003       .  S
O470        C471   1.264       .  A
C471        C654   1.493       .  S
O472       Cr481   2.024       .  S
O472        C480   1.267       .  A
O473       Cr481   2.004       .  S
O473        C474   1.265   1_556  A
C474        O475   1.266   1_554  A
C474        C673   1.491       .  S
O475       Cr482   2.009       .  S
O476       Cr482   1.982       .  S
O476        C477   1.260       .  A
C477        O478   1.265       .  A
C477        C589   1.484       .  S
O478       Cr483   1.995       .  S
O479       Cr483   1.971       .  S
O479        C480   1.257       .  A
C480        C766   1.475       .  S
Cr481       O484   1.770       .  S
Cr482       O484   1.770       .  S
Cr483       O484   1.766       .  S
O485       Cr503   1.991       .  S
O485        C493   1.263       .  A
O486       Cr503   1.999       .  S
O486        C487   1.265       .  A
C487        O488   1.259       .  A
C487       C1933   1.464       .  S
O488       Cr504   1.966       .  S
O489       Cr504   2.017       .  S
O489        C490   1.268       .  A
C490        O491   1.260       .  A
C490        C729   1.488       .  S
O491       Cr505   1.970       .  S
O492       Cr505   2.005       .  S
O492        C493   1.266       .  A
C493        C561   1.490       .  S
O494       Cr503   2.014       .  S
O494        C502   1.266       .  A
O495       Cr503   1.988       .  S
O495        C496   1.264       .  A
C496        O497   1.266       .  A
C496        C533   1.489       .  S
O497       Cr504   2.008       .  S
O498       Cr504   1.970       .  S
O498        C499   1.258       .  A
C499        O500   1.264       .  A
C499        C598   1.478       .  S
O500       Cr505   2.001       .  S
O501       Cr505   1.968       .  S
O501        C502   1.257       .  A
C502        C953   1.476       .  S
Cr503       O506   1.768       .  S
Cr504       O506   1.768       .  S
Cr505       O506   1.761       .  S
O507       Cr525   2.022       .  S
O507        C515   1.272       .  A
O508       Cr525   1.996       .  S
O508        C509   1.260       .  A
C509        O510   1.259       .  A
C509       C1886   1.498       .  S
O510       Cr526   1.997       .  S
O511       Cr526   1.987       .  S
O511        C512   1.264       .  A
C512        O513   1.266       .  A
C512        C626   1.474       .  S
O513       Cr527   1.999       .  S
O514       Cr527   1.969       .  S
O514        C515   1.262       .  A
C515        C542   1.481       .  S
O516       Cr525   1.999       .  S
O516        C524   1.260       .  A
O517       Cr525   2.029       .  S
O517        C518   1.272       .  A
C518        O519   1.261       .  A
C518        C570   1.494       .  S
O519       Cr526   1.959       .  S
O520       Cr526   1.989       .  S
O520        C521   1.261       .  A
C521        O522   1.265       .  A
C521        C710   1.486       .  S
O522       Cr527   2.008       .  S
O523       Cr527   1.990       .  S
O523        C524   1.260       .  A
C524        C869   1.488       .  S
Cr525       O528   1.783       .  S
Cr526       O528   1.777       .  S
Cr527       O528   1.780       .  S
C529        C530   1.403       .  A
C529        C534   1.401   1_556  A
C529        H539   1.082       .  S
C530        C535   1.492       .  S
C530        C531   1.413       .  A
C531        C532   1.404   1_556  A
C531        N536   1.429       .  S
C532        C533   1.405       .  A
C532        H537   1.083       .  S
C533        C534   1.415       .  A
C534        N538   1.428       .  S
C535        C540   1.415       .  A
C535        C544   1.404       .  A
N536        O551   1.262       .  A
N536        O552   1.262       .  A
N538        O549   1.262       .  A
N538        O550   1.262       .  A
C540        C541   1.407       .  A
C540        N545   1.430       .  S
C541        C542   1.404       .  A
C541        H546   1.083       .  S
C542        C543   1.410       .  A
C543        C544   1.399       .  A
C543        N547   1.429       .  S
C544        H548   1.082       .  S
N545        O555   1.262       .  A
N545        O556   1.262       .  A
N547        O553   1.262       .  A
N547        O554   1.261       .  A
C557        C558   1.401       .  A
C557        C562   1.405       .  A
C557        H567   1.084       .  S
C558        C563   1.481       .  S
C558        C559   1.406       .  A
C559        C560   1.399       .  A
C559        N564   1.430       .  S
C560        C561   1.408       .  A
C560        H565   1.083       .  S
C561        C562   1.416       .  A
C562        N566   1.428       .  S
C563        C568   1.405       .  A
C563        C572   1.403       .  A
N564        O579   1.262       .  A
N564        O580   1.262       .  A
N566        O577   1.262       .  A
N566        O578   1.262       .  A
C568        C569   1.395       .  A
C568        N573   1.430       .  S
C569        C570   1.410       .  A
C569        H574   1.083       .  S
C570        C571   1.417       .  A
C571        C572   1.408       .  A
C571        N575   1.428       .  S
C572        H576   1.083       .  S
N573        O583   1.262       .  A
N573        O584   1.262       .  A
N575        O581   1.262       .  A
N575        O582   1.261       .  A
C585        C586   1.404       .  A
C585        C590   1.401       .  A
C585        H595   1.083       .  S
C586        C591   1.479       .  S
C586        C587   1.407   1_554  A
C587        C588   1.394       .  A
C587        N592   1.430       .  S
C588        C589   1.406       .  A
C588        H593   1.084       .  S
C589        C590   1.415   1_556  A
C590        N594   1.429       .  S
C591        C596   1.408       .  A
C591        C600   1.402       .  A
N592        O607   1.262       .  A
N592        O608   1.262       .  A
N594        O605   1.262       .  A
N594        O606   1.261       .  A
C596        C597   1.399       .  A
C596        N601   1.429       .  S
C597        C598   1.407       .  A
C597        H602   1.084       .  S
C598        C599   1.412       .  A
C599        C600   1.394       .  A
C599        N603   1.429       .  S
C600        H604   1.084       .  S
N601        O611   1.262       .  A
N601        O612   1.262       .  A
N603        O609   1.262       .  A
N603        O610   1.262       .  A
C613        C614   1.405       .  A
C613        C618   1.403       .  A
C613        H623   1.080       .  S
C614        C619   1.495       .  S
C614        C615   1.413       .  A
C615        C616   1.404       .  A
C615        N620   1.431       .  S
C616        C617   1.408       .  A
C616        H621   1.081       .  S
C617        C618   1.414       .  A
C618        N622   1.429       .  S
C619        C624   1.417       .  A
C619        C628   1.406       .  A
N620        O635   1.262       .  A
N620        O636   1.262       .  A
N622        O633   1.262       .  A
N622        O634   1.262       .  A
C624        C625   1.406       .  A
C624        N629   1.430       .  S
C625        C626   1.402       .  A
C625        H630   1.082       .  S
C626        C627   1.407       .  A
C627        C628   1.398       .  A
C627        N631   1.429       .  S
C628        H632   1.080       .  S
N629        O639   1.262       .  A
N629        O640   1.261       .  A
N631        O637   1.262       .  A
N631        O638   1.261       .  A
C641        C642   1.399       .  A
C641        C646   1.399       .  A
C641        H651   1.082       .  S
C642        C647   1.483       .  S
C642        C643   1.410       .  A
C643        C644   1.402       .  A
C643        N648   1.429       .  S
C644        C645   1.406       .  A
C644        H649   1.082       .  S
C645        C646   1.420       .  A
C646        N650   1.430       .  S
C647        C652   1.407       .  A
C647        C656   1.400       .  A
N648        O663   1.262       .  A
N648        O664   1.262       .  A
N650        O661   1.262       .  A
N650        O662   1.262       .  A
C652        C653   1.404       .  A
C652        N657   1.429       .  S
C653        C654   1.410       .  A
C653        H658   1.067       .  S
C654        C655   1.421       .  A
C655        C656   1.401       .  A
C655        N659   1.432       .  S
C656        H660   1.077       .  S
N657        O667   1.262       .  A
N657        O668   1.261       .  A
N659        O665   1.262       .  A
N659        O666   1.261       .  A
C669        C670   1.407       .  A
C669        C674   1.407       .  A
C669        H679   1.083       .  S
C670        C675   1.498       .  S
C670        C671   1.412       .  A
C671        C672   1.404       .  A
C671        N676   1.428       .  S
C672        C673   1.406       .  A
C672        H677   1.083       .  S
C673        C674   1.413       .  A
C674        N678   1.428       .  S
C675        C680   1.411       .  A
C675        C684   1.407       .  A
N676        O691   1.262       .  A
N676        O692   1.262       .  A
N678        O689   1.262       .  A
N678        O690   1.261       .  A
C680        C681   1.401       .  A
C680        N685   1.429       .  S
C681        C682   1.407       .  A
C681        H686   1.083       .  S
C682        C683   1.416       .  A
C683        C684   1.410       .  A
C683        N687   1.428       .  S
C684        H688   1.083       .  S
N685        O695   1.262       .  A
N685        O696   1.262       .  A
N687        O693   1.262       .  A
N687        O694   1.261       .  A
C697        C698   1.402       .  A
C697        C702   1.401       .  A
C697        H707   1.084       .  S
C698        C703   1.491       .  S
C698        C699   1.411       .  A
C699        C700   1.406       .  A
C699        N704   1.429       .  S
C700        C701   1.407       .  A
C700        H705   1.084       .  S
C701        C702   1.417       .  A
C702        N706   1.429       .  S
C703        C708   1.410       .  A
C703        C712   1.408       .  A
N704        O719   1.262       .  A
N704        O720   1.262       .  A
N706        O717   1.262       .  A
N706        O718   1.262       .  A
C708        C709   1.396       .  A
C708        N713   1.430       .  S
C709        C710   1.405       .  A
C709        H714   1.084       .  S
C710        C711   1.411       .  A
C711        C712   1.410       .  A
C711        N715   1.428       .  S
C712        H716   1.083       .  S
N713        O723   1.262       .  A
N713        O724   1.262       .  A
N715        O721   1.262       .  A
N715        O722   1.262       .  A
C725        C726   1.401       .  A
C725        C730   1.401       .  A
C725        H735   1.083       .  S
C726        C731   1.483       .  S
C726        C727   1.410       .  A
C727        C728   1.399       .  A
C727        N732   1.430       .  S
C728        C729   1.407       .  A
C728        H733   1.083       .  S
C729        C730   1.417       .  A
C730        N734   1.429       .  S
C731        C736   1.411       .  A
C731        C740   1.401       .  A
N732        O747   1.262       .  A
N732        O748   1.262       .  A
N734        O745   1.262       .  A
N734        O746   1.262       .  A
C736        C737   1.398       .  A
C736        N741   1.430       .  S
C737        C738   1.405       .  A
C737        H742   1.083       .  S
C738        C739   1.419       .  A
C739        C740   1.401       .  A
C739        N743   1.431       .  S
C740        H744   1.083       .  S
N741        O751   1.262       .  A
N741        O752   1.262       .  A
N743        O749   1.262       .  A
N743        O750   1.262       .  A
C753        C754   1.403       .  A
C753        C758   1.402       .  A
C753        H763   1.084       .  S
C754        C759   1.483   1_455  S
C754        C755   1.410       .  A
C755        C756   1.399       .  A
C755        N760   1.429       .  S
C756        C757   1.404       .  A
C756        H761   1.084       .  S
C757        C758   1.411       .  A
C758        N762   1.428       .  S
C759        C764   1.410       .  A
C759        C768   1.402       .  A
N760        O775   1.262       .  A
N760        O776   1.262       .  A
N762        O773   1.261   1_556  A
N762        O774   1.262       .  A
C764        C765   1.400       .  A
C764        N769   1.429       .  S
C765        C766   1.402       .  A
C765        H770   1.079       .  S
C766        C767   1.410       .  A
C767        C768   1.402       .  A
C767        N771   1.428       .  S
C768        H772   1.082       .  S
N769        O779   1.262   1_556  A
N769        O780   1.262       .  A
N771        O777   1.262       .  A
N771        O778   1.261       .  A
C781        C782   1.402       .  A
C781        C786   1.401       .  A
C781        H791   1.084       .  S
C782        C787   1.488   1_455  S
C782        C783   1.410       .  A
C783        C784   1.405       .  A
C783        N788   1.430       .  S
C784        C785   1.409       .  A
C784        H789   1.083       .  S
C785        C786   1.415       .  A
C786        N790   1.429       .  S
C787        C792   1.411       .  A
C787        C796   1.402       .  A
N788        O803   1.262       .  A
N788        O804   1.262       .  A
N790        O801   1.262       .  A
N790        O802   1.262       .  A
C792        C793   1.405       .  A
C792        N797   1.429       .  S
C793        C794   1.407       .  A
C793        H798   1.084       .  S
C794        C795   1.414       .  A
C795        C796   1.401       .  A
C795        N799   1.429       .  S
C796        H800   1.084       .  S
N797        O807   1.262       .  A
N797        O808   1.262       .  A
N799        O805   1.262       .  A
N799        O806   1.262       .  A
C809        C810   1.403       .  A
C809        C814   1.406       .  A
C809        H819   1.083       .  S
C810        C815   1.482       .  S
C810        C811   1.405       .  A
C811        C812   1.397       .  A
C811        N816   1.429       .  S
C812        C813   1.409       .  A
C812        H817   1.083       .  S
C813        C814   1.416       .  A
C814        N818   1.429       .  S
C815        C820   1.405       .  A
C815        C824   1.403       .  A
N816        O831   1.262       .  A
N816        O832   1.262       .  A
N818        O829   1.262       .  A
N818        O830   1.262       .  A
C820        C821   1.399       .  A
C820        N825   1.429       .  S
C821        C822   1.409       .  A
C821        H826   1.083       .  S
C822        C823   1.416       .  A
C823        C824   1.404       .  A
C823        N827   1.429       .  S
C824        H828   1.083       .  S
N825        O835   1.262       .  A
N825        O836   1.262       .  A
N827        O833   1.262       .  A
N827        O834   1.262       .  A
C837        C838   1.403       .  A
C837        C842   1.402       .  A
C837        H847   1.083       .  S
C838        C843   1.491       .  S
C838        C839   1.411       .  A
C839        C840   1.402       .  A
C839        N844   1.429       .  S
C840        C841   1.406       .  A
C840        H845   1.083       .  S
C841        C842   1.418       .  A
C842        N846   1.429       .  S
C843        C848   1.411       .  A
C843        C852   1.402       .  A
N844        O859   1.262       .  A
N844        O860   1.262       .  A
N846        O857   1.262       .  A
N846        O858   1.262       .  A
C848        C849   1.404       .  A
C848        N853   1.429       .  S
C849        C850   1.408       .  A
C849        H854   1.083       .  S
C850        C851   1.417       .  A
C851        C852   1.400       .  A
C851        N855   1.429       .  S
C852        H856   1.083       .  S
N853        O863   1.262       .  A
N853        O864   1.262       .  A
N855        O861   1.261       .  A
N855        O862   1.261       .  A
C865        C866   1.404       .  A
C865        C870   1.409       .  A
C865        H875   1.084       .  S
C866        C871   1.484   1_655  S
C866        C867   1.406       .  A
C867        C868   1.399       .  A
C867        N872   1.429       .  S
C868        C869   1.407       .  A
C868        H873   1.084       .  S
C869        C870   1.415       .  A
C870        N874   1.431       .  S
C871        C876   1.407       .  A
C871        C880   1.399       .  A
N872        O887   1.262       .  A
N872        O888   1.262       .  A
N874        O885   1.262       .  A
N874        O886   1.262       .  A
C876        C877   1.407       .  A
C876        N881   1.428       .  S
C877        C878   1.409       .  A
C877        H882   1.084       .  S
C878        C879   1.420       .  A
C879        C880   1.399       .  A
C879        N883   1.430       .  S
C880        H884   1.084       .  S
N881        O891   1.262       .  A
N881        O892   1.262       .  A
N883        O889   1.262       .  A
N883        O890   1.262       .  A
C893        C894   1.405       .  A
C893        C898   1.401       .  A
C893        H903   1.080       .  S
C894        C899   1.489       .  S
C894        C895   1.410       .  A
C895        C896   1.401       .  A
C895        N900   1.430       .  S
C896        C897   1.408       .  A
C896        H901   1.081       .  S
C897        C898   1.415       .  A
C898        N902   1.430       .  S
C899        C904   1.409       .  A
C899        C908   1.406       .  A
N900        O915   1.262       .  A
N900        O916   1.262       .  A
N902        O913   1.262       .  A
N902        O914   1.262       .  A
C904        C905   1.400       .  A
C904        N909   1.430       .  S
C905        C906   1.408       .  A
C905        H910   1.081       .  S
C906        C907   1.415       .  A
C907        C908   1.403       .  A
C907        N911   1.430       .  S
C908        H912   1.080       .  S
N909        O919   1.262       .  A
N909        O920   1.262       .  A
N911        O917   1.262       .  A
N911        O918   1.262       .  A
C921        C922   1.405       .  A
C921        C926   1.402       .  A
C921        H931   1.082       .  S
C922        C927   1.489       .  S
C922        C923   1.412       .  A
C923        C924   1.399       .  A
C923        N928   1.430       .  S
C924        C925   1.406       .  A
C924        H929   1.083       .  S
C925        C926   1.415       .  A
C926        N930   1.430       .  S
C927        C932   1.411       .  A
C927        C936   1.403       .  A
N928        O943   1.262       .  A
N928        O944   1.262       .  A
N930        O941   1.262       .  A
N930        O942   1.262       .  A
C932        C933   1.402       .  A
C932        N937   1.429       .  S
C933        C934   1.407       .  A
C933        H938   1.083       .  S
C934        C935   1.416       .  A
C935        C936   1.398       .  A
C935        N939   1.429       .  S
C936        H940   1.082       .  S
N937        O947   1.262       .  A
N937        O948   1.262       .  A
N939        O945   1.262       .  A
N939        O946   1.262       .  A
C949        C950   1.400       .  A
C949        C954   1.398       .  A
C949        H959   1.084       .  S
C950        C955   1.473   1_655  S
C950        C951   1.406       .  A
C951        C952   1.401       .  A
C951        N956   1.428       .  S
C952        C953   1.405       .  A
C952        H957   1.084       .  S
C953        C954   1.412       .  A
C954        N958   1.430       .  S
C955        C960   1.406       .  A
C955        C964   1.399       .  A
N956        O971   1.262       .  A
N956        O972   1.262       .  A
N958        O969   1.262       .  A
N958        O970   1.262       .  A
C960        C961   1.400       .  A
C960        N965   1.428       .  S
C961        C962   1.406       .  A
C961        H966   1.084       .  S
C962        C963   1.413       .  A
C963        C964   1.398       .  A
C963        N967   1.428       .  S
C964        H968   1.084       .  S
N965        O975   1.262       .  A
N965        O976   1.262       .  A
N967        O973   1.262       .  A
N967        O974   1.261       .  A
C977        C978   1.404       .  A
C977        C982   1.401       .  A
C977        H987   1.082   1_554  S
C978        C983   1.489       .  S
C978        C979   1.410       .  A
C979        C980   1.401       .  A
C979        N984   1.430       .  S
C980        C981   1.408       .  A
C980        H985   1.082       .  S
C981        C982   1.415       .  A
C982        N986   1.429       .  S
C983        C988   1.410   1_554  A
C983        C992   1.404       .  A
N984        O999   1.262       .  A
N984       O1000   1.262       .  A
N986        O997   1.262   1_554  A
N986        O998   1.262       .  A
C988        C989   1.401       .  A
C988        N993   1.430       .  S
C989        C990   1.408       .  A
C989        H994   1.082       .  S
C990        C991   1.414   1_556  A
C991        C992   1.401       .  A
C991        N995   1.429       .  S
C992        H996   1.081       .  S
N993       O1003   1.262       .  A
N993       O1004   1.262       .  A
N995       O1001   1.261       .  A
N995       O1002   1.262       .  A
C1005      C1006   1.402       .  A
C1005      C1010   1.402       .  A
C1005      H1015   1.083       .  S
C1006      C1011   1.482       .  S
C1006      C1007   1.408       .  A
C1007      C1008   1.397       .  A
C1007      N1012   1.430       .  S
C1008      C1009   1.408       .  A
C1008      H1013   1.083       .  S
C1009      C1010   1.416       .  A
C1010      N1014   1.429       .  S
C1011      C1016   1.409       .  A
C1011      C1020   1.401       .  A
N1012      O1027   1.262       .  A
N1012      O1028   1.262       .  A
N1014      O1025   1.262       .  A
N1014      O1026   1.261       .  A
C1016      C1017   1.399       .  A
C1016      N1021   1.429       .  S
C1017      C1018   1.407       .  A
C1017      H1022   1.083       .  S
C1018      C1019   1.417       .  A
C1019      C1020   1.399       .  A
C1019      N1023   1.429       .  S
C1020      H1024   1.083       .  S
N1021      O1031   1.262       .  A
N1021      O1032   1.262       .  A
N1023      O1029   1.262       .  A
N1023      O1030   1.262       .  A
C1033      C1034   1.404       .  A
C1033      C1038   1.403       .  A
C1033      H1043   1.084       .  S
C1034      C1039   1.492       .  S
C1034      C1035   1.412       .  A
C1035      C1036   1.401       .  A
C1035      N1040   1.429       .  S
C1036      C1037   1.406   1_556  A
C1036      H1041   1.084   1_556  S
C1037      C1038   1.417   1_554  A
C1038      N1042   1.429       .  S
C1039      C1044   1.412       .  A
C1039      C1048   1.402       .  A
N1040      O1055   1.262       .  A
N1040      O1056   1.262       .  A
N1042      O1053   1.262       .  A
N1042      O1054   1.262   1_556  A
C1044      C1045   1.404       .  A
C1044      N1049   1.429       .  S
C1045      C1046   1.407       .  A
C1045      H1050   1.084       .  S
C1046      C1047   1.417       .  A
C1047      C1048   1.400       .  A
C1047      N1051   1.429       .  S
C1048      H1052   1.084       .  S
N1049      O1059   1.262       .  A
N1049      O1060   1.262       .  A
N1051      O1057   1.262       .  A
N1051      O1058   1.262       .  A
C1061      C1062   1.402       .  A
C1061      C1066   1.406       .  A
C1061      H1071   1.083       .  S
C1062      C1067   1.483       .  S
C1062      C1063   1.405       .  A
C1063      C1064   1.401       .  A
C1063      N1068   1.429       .  S
C1064      C1065   1.410       .  A
C1064      H1069   1.083       .  S
C1065      C1066   1.418       .  A
C1066      N1070   1.429       .  S
C1067      C1072   1.404       .  A
C1067      C1076   1.404       .  A
N1068      O1083   1.262       .  A
N1068      O1084   1.262       .  A
N1070      O1081   1.262       .  A
N1070      O1082   1.262       .  A
C1072      C1073   1.397       .  A
C1072      N1077   1.429       .  S
C1073      C1074   1.409       .  A
C1073      H1078   1.083       .  S
C1074      C1075   1.418       .  A
C1075      C1076   1.408       .  A
C1075      N1079   1.429       .  S
C1076      H1080   1.083       .  S
N1077      O1087   1.262       .  A
N1077      O1088   1.262       .  A
N1079      O1085   1.262       .  A
N1079      O1086   1.262       .  A
C1089      C1090   1.405       .  A
C1089      C1094   1.399       .  A
C1089      H1099   1.082       .  S
C1090      C1095   1.495       .  S
C1090      C1091   1.417       .  A
C1091      C1092   1.403       .  A
C1091      N1096   1.430       .  S
C1092      C1093   1.401       .  A
C1092      H1097   1.083       .  S
C1093      C1094   1.410       .  A
C1094      N1098   1.429       .  S
C1095      C1100   1.415       .  A
C1095      C1104   1.404       .  A
N1096      O1111   1.262       .  A
N1096      O1112   1.262       .  A
N1098      O1109   1.262       .  A
N1098      O1110   1.261       .  A
C1100      C1101   1.401       .  A
C1100      N1105   1.430       .  S
C1101      C1102   1.404       .  A
C1101      H1106   1.083       .  S
C1102      C1103   1.418       .  A
C1103      C1104   1.401       .  A
C1103      N1107   1.431       .  S
C1104      H1108   1.082       .  S
N1105      O1115   1.262       .  A
N1105      O1116   1.262       .  A
N1107      O1113   1.261       .  A
N1107      O1114   1.262       .  A
C1117      C1118   1.405       .  A
C1117      C1122   1.400       .  A
C1117      H1127   1.083       .  S
C1118      C1123   1.493       .  S
C1118      C1119   1.414       .  A
C1119      C1120   1.405       .  A
C1119      N1124   1.429       .  S
C1120      C1121   1.402       .  A
C1120      H1125   1.084       .  S
C1121      C1122   1.410       .  A
C1122      N1126   1.429       .  S
C1123      C1128   1.411       .  A
C1123      C1132   1.404       .  A
N1124      O1139   1.262       .  A
N1124      O1140   1.262       .  A
N1126      O1137   1.262       .  A
N1126      O1138   1.262       .  A
C1128      C1129   1.401       .  A
C1128      N1133   1.429       .  S
C1129      C1130   1.406       .  A
C1129      H1134   1.083       .  S
C1130      C1131   1.417       .  A
C1131      C1132   1.405       .  A
C1131      N1135   1.429       .  S
C1132      H1136   1.083       .  S
N1133      O1143   1.262       .  A
N1133      O1144   1.262       .  A
N1135      O1141   1.261       .  A
N1135      O1142   1.262       .  A
C1145      C1146   1.403       .  A
C1145      C1150   1.402       .  A
C1145      H1155   1.083       .  S
C1146      C1151   1.484       .  S
C1146      C1147   1.408       .  A
C1147      C1148   1.398       .  A
C1147      N1152   1.429       .  S
C1148      C1149   1.406       .  A
C1148      H1153   1.083       .  S
C1149      C1150   1.415       .  A
C1150      N1154   1.429       .  S
C1151      C1156   1.407       .  A
C1151      C1160   1.402       .  A
N1152      O1167   1.262       .  A
N1152      O1168   1.262       .  A
N1154      O1165   1.262       .  A
N1154      O1166   1.262       .  A
C1156      C1157   1.397       .  A
C1156      N1161   1.429       .  S
C1157      C1158   1.409       .  A
C1157      H1162   1.083       .  S
C1158      C1159   1.416       .  A
C1159      C1160   1.404       .  A
C1159      N1163   1.427       .  S
C1160      H1164   1.084       .  S
N1161      O1171   1.262       .  A
N1161      O1172   1.262       .  A
N1163      O1169   1.262       .  A
N1163      O1170   1.262       .  A
C1173      C1174   1.400       .  A
C1173      C1178   1.401       .  A
C1173      H1183   1.084       .  S
C1174      C1179   1.478       .  S
C1174      C1175   1.405       .  A
C1175      C1176   1.400       .  A
C1175      N1180   1.428       .  S
C1176      C1177   1.408       .  A
C1176      H1181   1.083       .  S
C1177      C1178   1.415       .  A
C1178      N1182   1.430       .  S
C1179      C1184   1.405       .  A
C1179      C1188   1.403       .  A
N1180      O1195   1.262       .  A
N1180      O1196   1.262       .  A
N1182      O1193   1.262       .  A
N1182      O1194   1.262       .  A
C1184      C1185   1.393       .  A
C1184      N1189   1.430       .  S
C1185      C1186   1.407       .  A
C1185      H1190   1.084       .  S
C1186      C1187   1.414       .  A
C1187      C1188   1.407       .  A
C1187      N1191   1.428       .  S
C1188      H1192   1.083       .  S
N1189      O1199   1.262       .  A
N1189      O1200   1.262       .  A
N1191      O1197   1.262       .  A
N1191      O1198   1.262       .  A
C1201      C1202   1.402       .  A
C1201      C1206   1.403       .  A
C1201      H1211   1.084       .  S
C1202      C1207   1.489       .  S
C1202      C1203   1.408       .  A
C1203      C1204   1.404       .  A
C1203      N1208   1.428       .  S
C1204      C1205   1.410       .  A
C1204      H1209   1.083       .  S
C1205      C1206   1.418       .  A
C1206      N1210   1.429       .  S
C1207      C1212   1.408   1_556  A
C1207      C1216   1.403       .  A
N1208      O1223   1.262       .  A
N1208      O1224   1.262       .  A
N1210      O1221   1.262       .  A
N1210      O1222   1.262       .  A
C1212      C1213   1.402       .  A
C1212      N1217   1.429       .  S
C1213      C1214   1.409       .  A
C1213      H1218   1.083       .  S
C1214      C1215   1.419   1_554  A
C1215      C1216   1.405       .  A
C1215      N1219   1.429       .  S
C1216      H1220   1.084       .  S
N1217      O1227   1.262       .  A
N1217      O1228   1.262       .  A
N1219      O1225   1.262       .  A
N1219      O1226   1.262       .  A
C1229      C1230   1.402       .  A
C1229      C1234   1.403       .  A
C1229      H1239   1.083       .  S
C1230      C1235   1.489       .  S
C1230      C1231   1.411       .  A
C1231      C1232   1.400       .  A
C1231      N1236   1.430       .  S
C1232      C1233   1.407       .  A
C1232      H1237   1.083       .  S
C1233      C1234   1.419       .  A
C1234      N1238   1.429       .  S
C1235      C1240   1.411       .  A
C1235      C1244   1.403       .  A
N1236      O1251   1.262       .  A
N1236      O1252   1.262       .  A
N1238      O1249   1.262       .  A
N1238      O1250   1.262       .  A
C1240      C1241   1.400       .  A
C1240      N1245   1.429       .  S
C1241      C1242   1.407       .  A
C1241      H1246   1.083       .  S
C1242      C1243   1.417       .  A
C1243      C1244   1.403       .  A
C1243      N1247   1.429       .  S
C1244      H1248   1.083       .  S
N1245      O1255   1.262       .  A
N1245      O1256   1.262       .  A
N1247      O1253   1.262       .  A
N1247      O1254   1.262       .  A
C1257      C1258   1.402       .  A
C1257      C1262   1.404       .  A
C1257      H1267   1.079       .  S
C1258      C1263   1.482       .  S
C1258      C1259   1.407       .  A
C1259      C1260   1.403       .  A
C1259      N1264   1.429       .  S
C1260      C1261   1.408       .  A
C1260      H1265   1.071       .  S
C1261      C1262   1.415       .  A
C1262      N1266   1.429       .  S
C1263      C1268   1.409       .  A
C1263      C1272   1.399       .  A
N1264      O1279   1.262       .  A
N1264      O1280   1.262       .  A
N1266      O1277   1.262       .  A
N1266      O1278   1.262       .  A
C1268      C1269   1.406       .  A
C1268      N1273   1.428       .  S
C1269      C1270   1.407       .  A
C1269      H1274   1.082       .  S
C1270      C1271   1.416       .  A
C1271      C1272   1.397       .  A
C1271      N1275   1.429       .  S
C1272      H1276   1.083       .  S
N1273      O1283   1.262       .  A
N1273      O1284   1.262       .  A
N1275      O1281   1.262       .  A
N1275      O1282   1.262       .  A
C1285      C1286   1.404       .  A
C1285      C1290   1.403   1_554  A
C1285      H1295   1.083       .  S
C1286      C1291   1.489       .  S
C1286      C1287   1.410       .  A
C1287      C1288   1.402   1_554  A
C1287      N1292   1.429       .  S
C1288      C1289   1.405       .  A
C1288      H1293   1.083       .  S
C1289      C1290   1.413       .  A
C1290      N1294   1.429       .  S
C1291      C1296   1.408       .  A
C1291      C1300   1.406       .  A
N1292      O1307   1.262       .  A
N1292      O1308   1.262       .  A
N1294      O1305   1.262       .  A
N1294      O1306   1.262       .  A
C1296      C1297   1.397       .  A
C1296      N1301   1.429       .  S
C1297      C1298   1.407       .  A
C1297      H1302   1.083       .  S
C1298      C1299   1.414       .  A
C1299      C1300   1.408       .  A
C1299      N1303   1.428       .  S
C1300      H1304   1.082       .  S
N1301      O1311   1.262       .  A
N1301      O1312   1.261       .  A
N1303      O1309   1.262       .  A
N1303      O1310   1.261       .  A
C1313      C1314   1.404       .  A
C1313      C1318   1.408       .  A
C1313      H1323   1.082       .  S
C1314      C1319   1.479       .  S
C1314      C1315   1.405       .  A
C1315      C1316   1.395       .  A
C1315      N1320   1.430       .  S
C1316      C1317   1.406       .  A
C1316      H1321   1.082       .  S
C1317      C1318   1.414       .  A
C1318      N1322   1.428       .  S
C1319      C1324   1.406       .  A
C1319      C1328   1.399       .  A
N1320      O1335   1.262       .  A
N1320      O1336   1.262       .  A
N1322      O1333   1.262       .  A
N1322      O1334   1.262       .  A
C1324      C1325   1.399       .  A
C1324      N1329   1.429       .  S
C1325      C1326   1.407       .  A
C1325      H1330   1.083       .  S
C1326      C1327   1.420       .  A
C1327      C1328   1.404       .  A
C1327      N1331   1.429       .  S
C1328      H1332   1.083       .  S
N1329      O1339   1.262       .  A
N1329      O1340   1.262       .  A
N1331      O1337   1.262       .  A
N1331      O1338   1.262       .  A
C1341      C1342   1.403       .  A
C1341      C1346   1.399       .  A
C1341      H1351   1.084       .  S
C1342      C1347   1.482       .  S
C1342      C1343   1.409       .  A
C1343      C1344   1.403       .  A
C1343      N1348   1.427       .  S
C1344      C1345   1.402       .  A
C1344      H1349   1.084       .  S
C1345      C1346   1.410       .  A
C1346      N1350   1.430       .  S
C1347      C1352   1.407       .  A
C1347      C1356   1.400       .  A
N1348      O1363   1.262       .  A
N1348      O1364   1.262       .  A
N1350      O1361   1.262       .  A
N1350      O1362   1.262       .  A
C1352      C1353   1.405       .  A
C1352      N1357   1.431       .  S
C1353      C1354   1.410       .  A
C1353      H1358   1.083       .  S
C1354      C1355   1.419       .  A
C1355      C1356   1.400       .  A
C1355      N1359   1.430       .  S
C1356      H1360   1.084       .  S
N1357      O1367   1.262       .  A
N1357      O1368   1.262       .  A
N1359      O1365   1.262       .  A
N1359      O1366   1.262       .  A
C1369      C1370   1.400       .  A
C1369      C1374   1.403       .  A
C1369      H1379   1.083       .  S
C1370      C1375   1.472       .  S
C1370      C1371   1.407       .  A
C1371      C1372   1.393       .  A
C1371      N1376   1.431       .  S
C1372      C1373   1.405       .  A
C1372      H1377   1.083       .  S
C1373      C1374   1.417       .  A
C1374      N1378   1.429       .  S
C1375      C1380   1.409       .  A
C1375      C1384   1.401       .  A
N1376      O1391   1.262       .  A
N1376      O1392   1.262       .  A
N1378      O1389   1.262       .  A
N1378      O1390   1.262       .  A
C1380      C1381   1.396       .  A
C1380      N1385   1.429       .  S
C1381      C1382   1.399       .  A
C1381      H1386   1.084       .  S
C1382      C1383   1.409       .  A
C1383      C1384   1.399       .  A
C1383      N1387   1.429       .  S
C1384      H1388   1.084       .  S
N1385      O1395   1.262       .  A
N1385      O1396   1.262       .  A
N1387      O1393   1.262       .  A
N1387      O1394   1.262       .  A
C1397      C1398   1.401       .  A
C1397      C1402   1.405       .  A
C1397      H1407   1.084       .  S
C1398      C1403   1.482       .  S
C1398      C1399   1.408       .  A
C1399      C1400   1.398       .  A
C1399      N1404   1.431       .  S
C1400      C1401   1.408       .  A
C1400      H1405   1.084       .  S
C1401      C1402   1.417       .  A
C1402      N1406   1.428       .  S
C1403      C1408   1.410       .  A
C1403      C1412   1.402       .  A
N1404      O1419   1.262       .  A
N1404      O1420   1.262       .  A
N1406      O1417   1.262       .  A
N1406      O1418   1.262       .  A
C1408      C1409   1.400       .  A
C1408      N1413   1.430       .  S
C1409      C1410   1.403       .  A
C1409      H1414   1.084       .  S
C1410      C1411   1.413       .  A
C1411      C1412   1.402       .  A
C1411      N1415   1.429       .  S
C1412      H1416   1.084       .  S
N1413      O1423   1.262   1_554  A
N1413      O1424   1.262       .  A
N1415      O1421   1.262       .  A
N1415      O1422   1.262       .  A
C1425      C1426   1.402       .  A
C1425      C1430   1.399       .  A
C1425      H1435   1.083       .  S
C1426      C1431   1.481       .  S
C1426      C1427   1.409       .  A
C1427      C1428   1.394       .  A
C1427      N1432   1.430       .  S
C1428      C1429   1.407       .  A
C1428      H1433   1.083       .  S
C1429      C1430   1.413       .  A
C1430      N1434   1.427       .  S
C1431      C1436   1.410       .  A
C1431      C1440   1.404       .  A
N1432      O1447   1.262       .  A
N1432      O1448   1.262       .  A
N1434      O1445   1.262       .  A
N1434      O1446   1.261       .  A
C1436      C1437   1.394       .  A
C1436      N1441   1.430       .  S
C1437      C1438   1.404       .  A
C1437      H1442   1.084       .  S
C1438      C1439   1.412       .  A
C1439      C1440   1.400       .  A
C1439      N1443   1.429       .  S
C1440      H1444   1.083       .  S
N1441      O1451   1.262       .  A
N1441      O1452   1.262       .  A
N1443      O1449   1.262       .  A
N1443      O1450   1.261       .  A
C1453      C1454   1.404       .  A
C1453      C1458   1.404       .  A
C1453      H1463   1.083       .  S
C1454      C1459   1.484       .  S
C1454      C1455   1.407       .  A
C1455      C1456   1.397       .  A
C1455      N1460   1.430       .  S
C1456      C1457   1.409       .  A
C1456      H1461   1.083       .  S
C1457      C1458   1.415       .  A
C1458      N1462   1.428       .  S
C1459      C1464   1.407       .  A
C1459      C1468   1.403       .  A
N1460      O1475   1.262       .  A
N1460      O1476   1.262       .  A
N1462      O1473   1.262       .  A
N1462      O1474   1.262       .  A
C1464      C1465   1.397       .  A
C1464      N1469   1.429       .  S
C1465      C1466   1.408       .  A
C1465      H1470   1.083       .  S
C1466      C1467   1.416       .  A
C1467      C1468   1.404       .  A
C1467      N1471   1.427       .  S
C1468      H1472   1.083       .  S
N1469      O1479   1.262       .  A
N1469      O1480   1.262       .  A
N1471      O1477   1.262       .  A
N1471      O1478   1.262       .  A
C1481      C1482   1.404       .  A
C1481      C1486   1.403       .  A
C1481      H1491   1.082       .  S
C1482      C1487   1.495       .  S
C1482      C1483   1.411       .  A
C1483      C1484   1.406       .  A
C1483      N1488   1.429       .  S
C1484      C1485   1.408       .  A
C1484      H1489   1.082       .  S
C1485      C1486   1.418       .  A
C1486      N1490   1.429       .  S
C1487      C1492   1.412       .  A
C1487      C1496   1.406       .  A
N1488      O1503   1.262       .  A
N1488      O1504   1.262       .  A
N1490      O1501   1.262       .  A
N1490      O1502   1.262       .  A
C1492      C1493   1.403       .  A
C1492      N1497   1.429       .  S
C1493      C1494   1.406       .  A
C1493      H1498   1.083       .  S
C1494      C1495   1.413       .  A
C1495      C1496   1.406       .  A
C1495      N1499   1.428       .  S
C1496      H1500   1.083       .  S
N1497      O1507   1.262       .  A
N1497      O1508   1.262       .  A
N1499      O1505   1.261       .  A
N1499      O1506   1.262       .  A
C1509      C1510   1.401       .  A
C1509      C1514   1.401       .  A
C1509      H1519   1.084       .  S
C1510      C1515   1.492       .  S
C1510      C1511   1.411       .  A
C1511      C1512   1.410       .  A
C1511      N1516   1.428       .  S
C1512      C1513   1.408       .  A
C1512      H1517   1.084       .  S
C1513      C1514   1.418       .  A
C1514      N1518   1.430       .  S
C1515      C1520   1.408       .  A
C1515      C1524   1.405       .  A
N1516      O1531   1.262       .  A
N1516      O1532   1.262       .  A
N1518      O1529   1.262       .  A
N1518      O1530   1.262       .  A
C1520      C1521   1.399       .  A
C1520      N1525   1.429       .  S
C1521      C1522   1.409       .  A
C1521      H1526   1.083       .  S
C1522      C1523   1.418       .  A
C1523      C1524   1.411       .  A
C1523      N1527   1.428       .  S
C1524      H1528   1.083       .  S
N1525      O1535   1.262       .  A
N1525      O1536   1.262       .  A
N1527      O1533   1.262       .  A
N1527      O1534   1.262       .  A
C1537      C1538   1.404       .  A
C1537      C1542   1.399       .  A
C1537      H1547   1.082   1_556  S
C1538      C1543   1.489       .  S
C1538      C1539   1.413       .  A
C1539      C1540   1.405       .  A
C1539      N1544   1.429       .  S
C1540      C1541   1.402       .  A
C1540      H1545   1.083       .  S
C1541      C1542   1.410       .  A
C1542      N1546   1.430       .  S
C1543      C1548   1.410   1_556  A
C1543      C1552   1.405       .  A
N1544      O1559   1.262       .  A
N1544      O1560   1.262       .  A
N1546      O1557   1.262   1_556  A
N1546      O1558   1.262       .  A
C1548      C1549   1.401       .  A
C1548      N1553   1.430       .  S
C1549      C1550   1.409       .  A
C1549      H1554   1.082       .  S
C1550      C1551   1.415   1_554  A
C1551      C1552   1.403       .  A
C1551      N1555   1.429       .  S
C1552      H1556   1.082       .  S
N1553      O1563   1.262       .  A
N1553      O1564   1.262       .  A
N1555      O1561   1.262       .  A
N1555      O1562   1.262       .  A
C1565      C1566   1.401       .  A
C1565      C1570   1.403       .  A
C1565      H1575   1.083       .  S
C1566      C1571   1.480       .  S
C1566      C1567   1.408       .  A
C1567      C1568   1.398       .  A
C1567      N1572   1.430       .  S
C1568      C1569   1.407       .  A
C1568      H1573   1.083       .  S
C1569      C1570   1.415       .  A
C1570      N1574   1.429       .  S
C1571      C1576   1.408       .  A
C1571      C1580   1.404       .  A
N1572      O1587   1.262       .  A
N1572      O1588   1.262       .  A
N1574      O1585   1.262       .  A
N1574      O1586   1.262       .  A
C1576      C1577   1.399       .  A
C1576      N1581   1.429       .  S
C1577      C1578   1.402       .  A
C1577      H1582   1.084       .  S
C1578      C1579   1.409       .  A
C1579      C1580   1.402       .  A
C1579      N1583   1.429       .  S
C1580      H1584   1.083       .  S
N1581      O1591   1.262       .  A
N1581      O1592   1.262       .  A
N1583      O1589   1.262       .  A
N1583      O1590   1.262       .  A
C1593      C1594   1.402       .  A
C1593      C1598   1.402       .  A
C1593      H1603   1.083       .  S
C1594      C1599   1.485       .  S
C1594      C1595   1.412       .  A
C1595      C1596   1.403       .  A
C1595      N1600   1.430       .  S
C1596      C1597   1.401       .  A
C1596      H1601   1.083       .  S
C1597      C1598   1.411       .  A
C1598      N1602   1.429       .  S
C1599      C1604   1.409       .  A
C1599      C1608   1.402       .  A
N1600      O1615   1.262       .  A
N1600      O1616   1.262       .  A
N1602      O1613   1.262       .  A
N1602      O1614   1.262       .  A
C1604      C1605   1.400       .  A
C1604      N1609   1.430       .  S
C1605      C1606   1.408       .  A
C1605      H1610   1.083       .  S
C1606      C1607   1.417       .  A
C1607      C1608   1.404       .  A
C1607      N1611   1.428       .  S
C1608      H1612   1.083       .  S
N1609      O1619   1.262       .  A
N1609      O1620   1.262       .  A
N1611      O1617   1.262       .  A
N1611      O1618   1.262       .  A
C1621      C1622   1.401       .  A
C1621      C1626   1.396       .  A
C1621      H1631   1.084       .  S
C1622      C1627   1.487       .  S
C1622      C1623   1.409       .  A
C1623      C1624   1.405       .  A
C1623      N1628   1.428       .  S
C1624      C1625   1.409       .  A
C1624      H1629   1.083       .  S
C1625      C1626   1.416       .  A
C1626      N1630   1.427       .  S
C1627      C1632   1.410       .  A
C1627      C1636   1.407       .  A
N1628      O1643   1.262       .  A
N1628      O1644   1.262       .  A
N1630      O1641   1.262       .  A
N1630      O1642   1.262       .  A
C1632      C1633   1.394       .  A
C1632      N1637   1.430       .  S
C1633      C1634   1.404       .  A
C1633      H1638   1.084       .  S
C1634      C1635   1.412       .  A
C1635      C1636   1.407       .  A
C1635      N1639   1.429       .  S
C1636      H1640   1.083       .  S
N1637      O1647   1.262       .  A
N1637      O1648   1.262       .  A
N1639      O1645   1.262       .  A
N1639      O1646   1.262       .  A
C1649      C1650   1.406       .  A
C1649      C1654   1.404       .  A
C1649      H1659   1.082       .  S
C1650      C1655   1.496       .  S
C1650      C1651   1.415       .  A
C1651      C1652   1.399       .  A
C1651      N1656   1.430       .  S
C1652      C1653   1.404       .  A
C1652      H1657   1.083       .  S
C1653      C1654   1.416       .  A
C1654      N1658   1.429       .  S
C1655      C1660   1.414       .  A
C1655      C1664   1.405       .  A
N1656      O1671   1.262       .  A
N1656      O1672   1.262       .  A
N1658      O1669   1.262       .  A
N1658      O1670   1.262       .  A
C1660      C1661   1.400       .  A
C1660      N1665   1.430       .  S
C1661      C1662   1.405       .  A
C1661      H1666   1.083       .  S
C1662      C1663   1.416       .  A
C1663      C1664   1.403       .  A
C1663      N1667   1.429       .  S
C1664      H1668   1.082       .  S
N1665      O1675   1.262       .  A
N1665      O1676   1.262       .  A
N1667      O1673   1.262       .  A
N1667      O1674   1.262       .  A
C1677      C1678   1.404       .  A
C1677      C1682   1.404       .  A
C1677      H1687   1.083       .  S
C1678      C1683   1.487       .  S
C1678      C1679   1.412       .  A
C1679      C1680   1.403       .  A
C1679      N1684   1.429       .  S
C1680      C1681   1.402       .  A
C1680      H1685   1.083       .  S
C1681      C1682   1.409       .  A
C1682      N1686   1.429       .  S
C1683      C1688   1.409       .  A
C1683      C1692   1.400       .  A
N1684      O1699   1.262       .  A
N1684      O1700   1.262       .  A
N1686      O1697   1.262       .  A
N1686      O1698   1.262       .  A
C1688      C1689   1.406       .  A
C1688      N1693   1.428       .  S
C1689      C1690   1.409       .  A
C1689      H1694   1.083       .  S
C1690      C1691   1.419       .  A
C1691      C1692   1.399       .  A
C1691      N1695   1.429       .  S
C1692      H1696   1.084       .  S
N1693      O1703   1.262       .  A
N1693      O1704   1.262       .  A
N1695      O1701   1.262       .  A
N1695      O1702   1.262       .  A
C1705      C1706   1.403       .  A
C1705      C1710   1.403       .  A
C1705      H1715   1.084       .  S
C1706      C1711   1.478       .  S
C1706      C1707   1.405       .  A
C1707      C1708   1.397       .  A
C1707      N1712   1.429       .  S
C1708      C1709   1.407       .  A
C1708      H1713   1.082       .  S
C1709      C1710   1.415       .  A
C1710      N1714   1.429       .  S
C1711      C1716   1.406       .  A
C1711      C1720   1.403       .  A
N1712      O1727   1.262       .  A
N1712      O1728   1.262       .  A
N1714      O1725   1.262       .  A
N1714      O1726   1.262       .  A
C1716      C1717   1.394       .  A
C1716      N1721   1.429       .  S
C1717      C1718   1.405       .  A
C1717      H1722   1.084       .  S
C1718      C1719   1.413       .  A
C1719      C1720   1.405       .  A
C1719      N1723   1.428   1_554  S
C1720      H1724   1.084       .  S
N1721      O1731   1.262       .  A
N1721      O1732   1.262       .  A
N1723      O1729   1.262       .  A
N1723      O1730   1.262       .  A
C1733      C1734   1.396       .  A
C1733      C1738   1.399       .  A
C1733      H1743   1.084       .  S
C1734      C1739   1.469       .  S
C1734      C1735   1.404       .  A
C1735      C1736   1.396       .  A
C1735      N1740   1.430       .  S
C1736      C1737   1.408       .  A
C1736      H1741   1.083       .  S
C1737      C1738   1.418       .  A
C1738      N1742   1.430       .  S
C1739      C1744   1.405       .  A
C1739      C1748   1.397       .  A
N1740      O1755   1.262       .  A
N1740      O1756   1.262       .  A
N1742      O1753   1.262       .  A
N1742      O1754   1.262       .  A
C1744      C1745   1.396       .  A
C1744      N1749   1.429       .  S
C1745      C1746   1.407       .  A
C1745      H1750   1.083       .  S
C1746      C1747   1.419       .  A
C1747      C1748   1.398       .  A
C1747      N1751   1.429       .  S
C1748      H1752   1.084       .  S
N1749      O1759   1.262       .  A
N1749      O1760   1.262       .  A
N1751      O1757   1.262       .  A
N1751      O1758   1.262       .  A
C1761      C1762   1.405       .  A
C1761      C1766   1.406       .  A
C1761      H1771   1.083       .  S
C1762      C1767   1.497       .  S
C1762      C1763   1.410       .  A
C1763      C1764   1.405       .  A
C1763      N1768   1.428       .  S
C1764      C1765   1.408       .  A
C1764      H1769   1.082       .  S
C1765      C1766   1.419       .  A
C1766      N1770   1.429       .  S
C1767      C1772   1.411       .  A
C1767      C1776   1.406       .  A
N1768      O1783   1.262       .  A
N1768      O1784   1.262       .  A
N1770      O1781   1.262       .  A
N1770      O1782   1.262       .  A
C1772      C1773   1.405       .  A
C1772      N1777   1.429       .  S
C1773      C1774   1.407       .  A
C1773      H1778   1.083       .  S
C1774      C1775   1.414       .  A
C1775      C1776   1.408       .  A
C1775      N1779   1.428       .  S
C1776      H1780   1.083       .  S
N1777      O1787   1.262       .  A
N1777      O1788   1.262       .  A
N1779      O1785   1.261       .  A
N1779      O1786   1.262       .  A
C1789      C1790   1.404       .  A
C1789      C1794   1.404       .  A
C1789      H1799   1.079       .  S
C1790      C1795   1.488       .  S
C1790      C1791   1.408       .  A
C1791      C1792   1.402       .  A
C1791      N1796   1.429       .  S
C1792      C1793   1.408       .  A
C1792      H1797   1.071       .  S
C1793      C1794   1.417       .  A
C1794      N1798   1.429       .  S
C1795      C1800   1.408       .  A
C1795      C1804   1.404       .  A
N1796      O1811   1.262       .  A
N1796      O1812   1.262       .  A
N1798      O1809   1.262       .  A
N1798      O1810   1.262       .  A
C1800      C1801   1.400       .  A
C1800      N1805   1.429       .  S
C1801      C1802   1.409       .  A
C1801      H1806   1.082       .  S
C1802      C1803   1.415       .  A
C1803      C1804   1.404       .  A
C1803      N1807   1.429       .  S
C1804      H1808   1.082       .  S
N1805      O1815   1.262       .  A
N1805      O1816   1.262       .  A
N1807      O1813   1.261       .  A
N1807      O1814   1.262       .  A
C1817      C1818   1.403       .  A
C1817      C1822   1.401       .  A
C1817      H1827   1.084       .  S
C1818      C1823   1.482       .  S
C1818      C1819   1.407       .  A
C1819      C1820   1.399       .  A
C1819      N1824   1.428       .  S
C1820      C1821   1.406       .  A
C1820      H1825   1.084       .  S
C1821      C1822   1.413       .  A
C1822      N1826   1.429       .  S
C1823      C1828   1.408       .  A
C1823      C1832   1.403       .  A
N1824      O1839   1.262       .  A
N1824      O1840   1.262       .  A
N1826      O1837   1.262       .  A
N1826      O1838   1.261       .  A
C1828      C1829   1.395       .  A
C1828      N1833   1.430       .  S
C1829      C1830   1.405       .  A
C1829      H1834   1.084       .  S
C1830      C1831   1.414       .  A
C1831      C1832   1.406       .  A
C1831      N1835   1.428       .  S
C1832      H1836   1.084       .  S
N1833      O1843   1.262       .  A
N1833      O1844   1.262       .  A
N1835      O1841   1.262       .  A
N1835      O1842   1.261       .  A
C1845      C1846   1.401       .  A
C1845      C1850   1.402       .  A
C1845      H1855   1.083       .  S
C1846      C1851   1.474   1_554  S
C1846      C1847   1.405       .  A
C1847      C1848   1.396       .  A
C1847      N1852   1.429       .  S
C1848      C1849   1.405       .  A
C1848      H1853   1.083       .  S
C1849      C1850   1.415       .  A
C1850      N1854   1.429       .  S
C1851      C1856   1.405       .  A
C1851      C1860   1.403       .  A
N1852      O1867   1.261       .  A
N1852      O1868   1.262       .  A
N1854      O1865   1.262       .  A
N1854      O1866   1.262       .  A
C1856      C1857   1.392       .  A
C1856      N1861   1.430   1_556  S
C1857      C1858   1.406       .  A
C1857      H1862   1.084       .  S
C1858      C1859   1.412       .  A
C1859      C1860   1.404       .  A
C1859      N1863   1.428       .  S
C1860      H1864   1.083       .  S
N1861      O1871   1.262       .  A
N1861      O1872   1.262       .  A
N1863      O1869   1.262       .  A
N1863      O1870   1.262       .  A
C1873      C1874   1.405       .  A
C1873      C1878   1.407       .  A
C1873      H1883   1.083       .  S
C1874      C1879   1.492       .  S
C1874      C1875   1.410       .  A
C1875      C1876   1.401       .  A
C1875      N1880   1.429       .  S
C1876      C1877   1.407       .  A
C1876      H1881   1.084       .  S
C1877      C1878   1.414       .  A
C1878      N1882   1.429       .  S
C1879      C1884   1.410       .  A
C1879      C1888   1.402       .  A
N1880      O1895   1.262       .  A
N1880      O1896   1.262       .  A
N1882      O1893   1.262       .  A
N1882      O1894   1.262       .  A
C1884      C1885   1.406       .  A
C1884      N1889   1.428       .  S
C1885      C1886   1.408       .  A
C1885      H1890   1.084       .  S
C1886      C1887   1.420       .  A
C1887      C1888   1.403       .  A
C1887      N1891   1.429       .  S
C1888      H1892   1.084       .  S
N1889      O1899   1.262       .  A
N1889      O1900   1.262       .  A
N1891      O1897   1.262       .  A
N1891      O1898   1.262       .  A
C1901      C1902   1.399       .  A
C1901      C1906   1.398       .  A
C1901      H1911   1.083       .  S
C1902      C1907   1.474   1_565  S
C1902      C1903   1.407       .  A
C1903      C1904   1.402       .  A
C1903      N1908   1.429       .  S
C1904      C1905   1.404       .  A
C1904      H1909   1.080       .  S
C1905      C1906   1.414       .  A
C1906      N1910   1.430       .  S
C1907      C1912   1.404       .  A
C1907      C1916   1.401       .  A
N1908      O1923   1.262       .  A
N1908      O1924   1.262       .  A
N1910      O1921   1.262       .  A
N1910      O1922   1.262       .  A
C1912      C1913   1.395       .  A
C1912      N1917   1.429       .  S
C1913      C1914   1.407       .  A
C1913      H1918   1.083       .  S
C1914      C1915   1.415       .  A
C1915      C1916   1.405       .  A
C1915      N1919   1.428       .  S
C1916      H1920   1.083       .  S
N1917      O1927   1.262       .  A
N1917      O1928   1.262       .  A
N1919      O1925   1.261       .  A
N1919      O1926   1.262       .  A
C1929      C1930   1.404       .  A
C1929      C1934   1.397       .  A
C1929      H1939   1.080       .  S
C1930      C1935   1.478       .  S
C1930      C1931   1.410       .  A
C1931      C1932   1.396       .  A
C1931      N1936   1.430       .  S
C1932      C1933   1.400       .  A
C1932      H1937   1.078       .  S
C1933      C1934   1.407       .  A
C1934      N1938   1.429       .  S
C1935      C1940   1.407       .  A
C1935      C1944   1.402       .  A
N1936      O1951   1.262       .  A
N1936      O1952   1.262       .  A
N1938      O1949   1.261       .  A
N1938      O1950   1.261       .  A
C1940      C1941   1.395       .  A
C1940      N1945   1.430       .  S
C1941      C1942   1.407       .  A
C1941      H1946   1.083       .  S
C1942      C1943   1.414       .  A
C1943      C1944   1.398       .  A
C1943      N1947   1.429       .  S
C1944      H1948   1.082       .  S
N1945      O1955   1.262       .  A
N1945      O1956   1.262       .  A
N1947      O1953   1.261       .  A
N1947      O1954   1.262       .  A
C1957      C1958   1.403       .  A
C1957      C1962   1.406       .  A
C1957      H1967   1.084       .  S
C1958      C1963   1.483   1_545  S
C1958      C1959   1.409       .  A
C1959      C1960   1.396       .  A
C1959      N1964   1.431       .  S
C1960      C1961   1.407       .  A
C1960      H1965   1.084       .  S
C1961      C1962   1.416       .  A
C1962      N1966   1.428       .  S
C1963      C1968   1.410       .  A
C1963      C1972   1.403       .  A
N1964      O1979   1.262       .  A
N1964      O1980   1.262       .  A
N1966      O1977   1.262       .  A
N1966      O1978   1.262       .  A
C1968      C1969   1.397       .  A
C1968      N1973   1.431       .  S
C1969      C1970   1.403       .  A
C1969      H1974   1.084       .  S
C1970      C1971   1.413       .  A
C1971      C1972   1.404       .  A
C1971      N1975   1.428       .  S
C1972      H1976   1.084       .  S
N1973      O1983   1.262       .  A
N1973      O1984   1.262       .  A
N1975      O1981   1.262       .  A
N1975      O1982   1.262       .  A
C1985      C1986   1.402       .  A
C1985      C1990   1.403       .  A
C1985      H1995   1.083       .  S
C1986      C1991   1.487   1_554  S
C1986      C1987   1.409       .  A
C1987      C1988   1.401       .  A
C1987      N1992   1.429       .  S
C1988      C1989   1.409       .  A
C1988      H1993   1.083       .  S
C1989      C1990   1.416       .  A
C1990      N1994   1.427       .  S
C1991      C1996   1.409       .  A
C1991      C2000   1.403       .  A
N1992      O2007   1.262       .  A
N1992      O2008   1.262   1_554  A
N1994      O2005   1.262       .  A
N1994      O2006   1.261       .  A
C1996      C1997   1.399       .  A
C1996      N2001   1.429       .  S
C1997      C1998   1.408       .  A
C1997      H2002   1.082       .  S
C1998      C1999   1.416       .  A
C1999      C2000   1.404       .  A
C1999      N2003   1.427       .  S
C2000      H2004   1.083       .  S
N2001      O2011   1.262       .  A
N2001      O2012   1.262       .  A
N2003      O2009   1.262       .  A
N2003      O2010   1.262       .  A
C2013      C2014   1.403       .  A
C2013      C2018   1.399       .  A
C2013      H2023   1.083       .  S
C2014      C2019   1.493       .  S
C2014      C2015   1.413       .  A
C2015      C2016   1.404       .  A
C2015      N2020   1.429       .  S
C2016      C2017   1.405       .  A
C2016      H2021   1.083       .  S
C2017      C2018   1.416       .  A
C2018      N2022   1.430       .  S
C2019      C2024   1.412       .  A
C2019      C2028   1.404       .  A
N2020      O2035   1.262       .  A
N2020      O2036   1.262       .  A
N2022      O2033   1.262       .  A
N2022      O2034   1.262       .  A
C2024      C2025   1.401       .  A
C2024      N2029   1.430       .  S
C2025      C2026   1.406       .  A
C2025      H2030   1.083       .  S
C2026      C2027   1.417       .  A
C2027      C2028   1.403       .  A
C2027      N2031   1.429       .  S
C2028      H2032   1.083       .  S
N2029      O2039   1.262       .  A
N2029      O2040   1.262       .  A
N2031      O2037   1.261       .  A
N2031      O2038   1.262       .  A
C2041      C2042   1.402       .  A
C2041      C2046   1.398       .  A
C2041      H2051   1.082       .  S
C2042      C2047   1.482       .  S
C2042      C2043   1.410       .  A
C2043      C2044   1.397       .  A
C2043      N2048   1.430       .  S
C2044      C2045   1.405       .  A
C2044      H2049   1.083       .  S
C2045      C2046   1.416       .  A
C2046      N2050   1.431       .  S
C2047      C2052   1.413       .  A
C2047      C2056   1.404       .  A
N2048      O2063   1.262       .  A
N2048      O2064   1.262       .  A
N2050      O2061   1.262       .  A
N2050      O2062   1.261       .  A
C2052      C2053   1.398       .  A
C2052      N2057   1.430       .  S
C2053      C2054   1.401       .  A
C2053      H2058   1.081       .  S
C2054      C2055   1.407       .  A
C2055      C2056   1.396       .  A
C2055      N2059   1.429       .  S
C2056      H2060   1.081       .  S
N2057      O2067   1.262       .  A
N2057      O2068   1.262       .  A
N2059      O2065   1.262       .  A
N2059      O2066   1.262       .  A
C2069      C2070   1.400       .  A
C2069      C2074   1.399       .  A
C2069      H2079   1.084       .  S
C2070      C2075   1.477       .  S
C2070      C2071   1.405       .  A
C2071      C2072   1.400       .  A
C2071      N2076   1.428       .  S
C2072      C2073   1.407       .  A
C2072      H2077   1.083       .  S
C2073      C2074   1.417       .  A
C2074      N2078   1.430       .  S
C2075      C2080   1.404       .  A
C2075      C2084   1.402       .  A
N2076      O2091   1.262       .  A
N2076      O2092   1.262       .  A
N2078      O2089   1.262       .  A
N2078      O2090   1.262       .  A
C2080      C2081   1.397       .  A
C2080      N2085   1.429       .  S
C2081      C2082   1.409       .  A
C2081      H2086   1.083       .  S
C2082      C2083   1.417       .  A
C2083      C2084   1.402       .  A
C2083      N2087   1.430       .  S
C2084      H2088   1.084       .  S
N2085      O2095   1.262       .  A
N2085      O2096   1.262       .  A
N2087      O2093   1.262       .  A
N2087      O2094   1.262       .  A
C2097      C2098   1.404       .  A
C2097      C2102   1.402       .  A
C2097      H2107   1.083       .  S
C2098      C2103   1.485       .  S
C2098      C2099   1.409       .  A
C2099      C2100   1.399       .  A
C2099      N2104   1.429       .  S
C2100      C2101   1.407       .  A
C2100      H2105   1.084       .  S
C2101      C2102   1.416       .  A
C2102      N2106   1.430       .  S
C2103      C2108   1.409       .  A
C2103      C2112   1.401       .  A
N2104      O2119   1.262       .  A
N2104      O2120   1.261       .  A
N2106      O2117   1.262       .  A
N2106      O2118   1.262       .  A
C2108      C2109   1.404       .  A
C2108      N2113   1.429       .  S
C2109      C2110   1.408       .  A
C2109      H2114   1.083       .  S
C2110      C2111   1.418       .  A
C2111      C2112   1.398       .  A
C2111      N2115   1.429       .  S
C2112      H2116   1.083       .  S
N2113      O2123   1.262       .  A
N2113      O2124   1.262       .  A
N2115      O2121   1.262       .  A
N2115      O2122   1.262       .  A
C2125      C2126   1.405       .  A
C2125      C2130   1.401       .  A
C2125      H2135   1.082       .  S
C2126      C2131   1.497       .  S
C2126      C2127   1.417       .  A
C2127      C2128   1.405       .  A
C2127      N2132   1.429       .  S
C2128      C2129   1.402       .  A
C2128      H2133   1.083       .  S
C2129      C2130   1.410       .  A
C2130      N2134   1.429   1_554  S
C2131      C2136   1.413       .  A
C2131      C2140   1.405       .  A
N2132      O2147   1.262       .  A
N2132      O2148   1.262       .  A
N2134      O2145   1.262   1_556  A
N2134      O2146   1.262       .  A
C2136      C2137   1.402       .  A
C2136      N2141   1.430       .  S
C2137      C2138   1.407       .  A
C2137      H2142   1.083       .  S
C2138      C2139   1.417       .  A
C2139      C2140   1.405       .  A
C2139      N2143   1.430       .  S
C2140      H2144   1.082       .  S
N2141      O2151   1.262       .  A
N2141      O2152   1.262       .  A
N2143      O2149   1.261       .  A
N2143      O2150   1.262       .  A
C2153      C2154   1.404       .  A
C2153      C2158   1.401       .  A
C2153      H2163   1.083       .  S
C2154      C2159   1.493       .  S
C2154      C2155   1.412       .  A
C2155      C2156   1.402       .  A
C2155      N2160   1.429       .  S
C2156      C2157   1.407       .  A
C2156      H2161   1.083   1_556  S
C2157      C2158   1.417       .  A
C2158      N2162   1.430       .  S
C2159      C2164   1.412       .  A
C2159      C2168   1.403       .  A
N2160      O2175   1.262       .  A
N2160      O2176   1.261       .  A
N2162      O2173   1.262       .  A
N2162      O2174   1.262       .  A
C2164      C2165   1.402       .  A
C2164      N2169   1.429       .  S
C2165      C2166   1.407       .  A
C2165      H2170   1.083       .  S
C2166      C2167   1.419       .  A
C2167      C2168   1.402       .  A
C2167      N2171   1.430       .  S
C2168      H2172   1.083       .  S
N2169      O2179   1.262       .  A
N2169      O2180   1.262       .  A
N2171      O2177   1.262       .  A
N2171      O2178   1.262       .  A
C2181      C2182   1.404       .  A
C2181      C2186   1.402       .  A
C2181      H2191   1.082       .  S
C2182      C2187   1.483       .  S
C2182      C2183   1.408       .  A
C2183      C2184   1.399       .  A
C2183      N2188   1.430       .  S
C2184      C2185   1.409       .  A
C2184      H2189   1.082       .  S
C2185      C2186   1.414       .  A
C2186      N2190   1.429       .  S
C2187      C2192   1.408       .  A
C2187      C2196   1.402       .  A
N2188      O2203   1.262       .  A
N2188      O2204   1.262       .  A
N2190      O2201   1.262       .  A
N2190      O2202   1.262       .  A
C2192      C2193   1.401       .  A
C2192      N2197   1.428       .  S
C2193      C2194   1.408       .  A
C2193      H2198   1.082       .  S
C2194      C2195   1.418       .  A
C2195      C2196   1.398       .  A
C2195      N2199   1.430       .  S
C2196      H2200   1.082       .  S
N2197      O2207   1.262       .  A
N2197      O2208   1.262       .  A
N2199      O2205   1.262       .  A
N2199      O2206   1.262       .  A
C2209      C2210   1.404       .  A
C2209      C2214   1.403       .  A
C2209      H2219   1.083       .  S
C2210      C2215   1.488       .  S
C2210      C2211   1.410       .  A
C2211      C2212   1.400       .  A
C2211      N2216   1.429       .  S
C2212      C2213   1.406       .  A
C2212      H2217   1.083       .  S
C2213      C2214   1.415       .  A
C2214      N2218   1.429       .  S
C2215      C2220   1.409       .  A
C2215      C2224   1.402       .  A
N2216      O2231   1.262       .  A
N2216      O2232   1.262       .  A
N2218      O2229   1.262       .  A
N2218      O2230   1.262       .  A
C2220      C2221   1.399       .  A
C2220      N2225   1.429       .  S
C2221      C2222   1.409       .  A
C2221      H2226   1.083       .  S
C2222      C2223   1.417       .  A
C2223      C2224   1.403       .  A
C2223      N2227   1.427       .  S
C2224      H2228   1.083       .  S
N2225      O2235   1.262       .  A
N2225      O2236   1.262       .  A
N2227      O2233   1.262       .  A
N2227      O2234   1.262       .  A
C2237      C2238   1.405       .  A
C2237      C2242   1.403       .  A
C2237      H2247   1.081       .  S
C2238      C2243   1.493       .  S
C2238      C2239   1.413       .  A
C2239      C2240   1.400       .  A
C2239      N2244   1.430       .  S
C2240      C2241   1.405       .  A
C2240      H2245   1.083       .  S
C2241      C2242   1.416       .  A
C2242      N2246   1.429       .  S
C2243      C2248   1.413       .  A
C2243      C2252   1.403       .  A
N2244      O2259   1.262       .  A
N2244      O2260   1.262       .  A
N2246      O2257   1.262       .  A
N2246      O2258   1.262       .  A
C2248      C2249   1.403       .  A
C2248      N2253   1.429       .  S
C2249      C2250   1.406       .  A
C2249      H2254   1.083       .  S
C2250      C2251   1.417       .  A
C2251      C2252   1.399       .  A
C2251      N2255   1.430       .  S
C2252      H2256   1.083       .  S
N2253      O2263   1.262       .  A
N2253      O2264   1.261       .  A
N2255      O2261   1.262       .  A
N2255      O2262   1.262       .  A
C2265      C2266   1.400       .  A
C2265      C2270   1.402       .  A
C2265      H2275   1.084   1_556  S
C2266      C2271   1.479       .  S
C2266      C2267   1.407       .  A
C2267      C2268   1.400       .  A
C2267      N2272   1.429       .  S
C2268      C2269   1.407       .  A
C2268      H2273   1.083       .  S
C2269      C2270   1.417       .  A
C2270      N2274   1.429   1_556  S
C2271      C2276   1.408       .  A
C2271      C2280   1.402       .  A
N2272      O2287   1.262       .  A
N2272      O2288   1.262       .  A
N2274      O2285   1.262       .  A
N2274      O2286   1.262   1_554  A
C2276      C2277   1.401       .  A
C2276      N2281   1.429   1_556  S
C2277      C2278   1.404       .  A
C2277      H2282   1.083       .  S
C2278      C2279   1.412       .  A
C2279      C2280   1.402       .  A
C2279      N2283   1.429       .  S
C2280      H2284   1.083       .  S
N2281      O2291   1.262       .  A
N2281      O2292   1.261       .  A
N2283      O2289   1.262       .  A
N2283      O2290   1.262       .  A
C2293      C2294   1.404   1_554  A
C2293      C2298   1.404       .  A
C2293      H2303   1.083       .  S
C2294      C2299   1.480   1_565  S
C2294      C2295   1.409       .  A
C2295      C2296   1.395       .  A
C2295      N2300   1.429       .  S
C2296      C2297   1.401       .  A
C2296      H2301   1.084       .  S
C2297      C2298   1.410   1_556  A
C2298      N2302   1.428       .  S
C2299      C2304   1.409       .  A
C2299      C2308   1.400   1_556  A
N2300      O2315   1.262       .  A
N2300      O2316   1.262       .  A
N2302      O2313   1.262       .  A
N2302      O2314   1.262       .  A
C2304      C2305   1.405       .  A
C2304      N2309   1.428       .  S
C2305      C2306   1.407   1_556  A
C2305      H2310   1.083       .  S
C2306      C2307   1.413       .  A
C2307      C2308   1.394       .  A
C2307      N2311   1.430       .  S
C2308      H2312   1.084       .  S
N2309      O2319   1.262       .  A
N2309      O2320   1.262       .  A
N2311      O2317   1.262       .  A
N2311      O2318   1.262       .  A
C2321      C2322   1.404       .  A
C2321      C2326   1.403       .  A
C2321      H2331   1.083       .  S
C2322      C2327   1.493       .  S
C2322      C2323   1.412       .  A
C2323      C2324   1.402       .  A
C2323      N2328   1.429       .  S
C2324      C2325   1.408       .  A
C2324      H2329   1.083       .  S
C2325      C2326   1.417       .  A
C2326      N2330   1.429       .  S
C2327      C2332   1.412       .  A
C2327      C2336   1.404       .  A
N2328      O2343   1.262       .  A
N2328      O2344   1.262       .  A
N2330      O2341   1.262       .  A
N2330      O2342   1.262       .  A
C2332      C2333   1.401       .  A
C2332      N2337   1.430       .  S
C2333      C2334   1.407       .  A
C2333      H2338   1.083       .  S
C2334      C2335   1.418       .  A
C2335      C2336   1.404       .  A
C2335      N2339   1.429       .  S
C2336      H2340   1.082       .  S
N2337      O2347   1.262       .  A
N2337      O2348   1.262       .  A
N2339      O2345   1.262       .  A
N2339      O2346   1.262   1_554  A
C2349      C2350   1.405       .  A
C2349      C2354   1.402       .  A
C2349      H2359   1.082       .  S
C2350      C2355   1.486       .  S
C2350      C2351   1.409       .  A
C2351      C2352   1.400       .  A
C2351      N2356   1.430       .  S
C2352      C2353   1.408       .  A
C2352      H2357   1.082       .  S
C2353      C2354   1.415       .  A
C2354      N2358   1.429       .  S
C2355      C2360   1.412       .  A
C2355      C2364   1.404       .  A
N2356      O2371   1.262       .  A
N2356      O2372   1.262       .  A
N2358      O2369   1.262       .  A
N2358      O2370   1.262       .  A
C2360      C2361   1.404       .  A
C2360      N2365   1.429       .  S
C2361      C2362   1.403       .  A
C2361      H2366   1.083       .  S
C2362      C2363   1.408       .  A
C2363      C2364   1.397       .  A
C2363      N2367   1.430       .  S
C2364      H2368   1.082       .  S
N2365      O2375   1.262       .  A
N2365      O2376   1.262       .  A
N2367      O2373   1.262       .  A
N2367      O2374   1.262       .  A
C2377      C2378   1.400       .  A
C2377      C2382   1.400       .  A
C2377      H2387   1.084       .  S
C2378      C2383   1.480       .  S
C2378      C2379   1.409       .  A
C2379      C2380   1.402       .  A
C2379      N2384   1.430       .  S
C2380      C2381   1.407       .  A
C2380      H2385   1.083       .  S
C2381      C2382   1.414       .  A
C2382      N2386   1.428       .  S
C2383      C2388   1.408       .  A
C2383      C2392   1.403       .  A
N2384      O2399   1.262       .  A
N2384      O2400   1.262       .  A
N2386      O2397   1.262       .  A
N2386      O2398   1.262       .  A
C2388      C2389   1.399       .  A
C2388      N2393   1.430       .  S
C2389      C2390   1.406       .  A
C2389      H2394   1.083       .  S
C2390      C2391   1.412       .  A
C2391      C2392   1.403       .  A
C2391      N2395   1.429       .  S
C2392      H2396   1.083       .  S
N2393      O2403   1.262       .  A
N2393      O2404   1.262       .  A
N2395      O2401   1.262       .  A
N2395      O2402   1.262       .  A
C2405      C2406   1.400       .  A
C2405      C2410   1.402       .  A
C2405      H2415   1.083       .  S
C2406      C2411   1.477   1_545  S
C2406      C2407   1.407       .  A
C2407      C2408   1.398       .  A
C2407      N2412   1.429       .  S
C2408      C2409   1.406       .  A
C2408      H2413   1.083       .  S
C2409      C2410   1.416       .  A
C2410      N2414   1.429       .  S
C2411      C2416   1.407       .  A
C2411      C2420   1.402       .  A
N2412      O2427   1.262       .  A
N2412      O2428   1.262       .  A
N2414      O2425   1.262       .  A
N2414      O2426   1.262       .  A
C2416      C2417   1.396       .  A
C2416      N2421   1.429       .  S
C2417      C2418   1.403       .  A
C2417      H2422   1.084       .  S
C2418      C2419   1.413       .  A
C2419      C2420   1.404       .  A
C2419      N2423   1.429       .  S
C2420      H2424   1.084       .  S
N2421      O2431   1.262       .  A
N2421      O2432   1.262       .  A
N2423      O2429   1.262       .  A
N2423      O2430   1.262       .  A
C2433      C2434   1.403       .  A
C2433      C2438   1.405       .  A
C2433      H2443   1.083       .  S
C2434      C2439   1.474       .  S
C2434      C2435   1.406       .  A
C2435      C2436   1.392       .  A
C2435      N2440   1.429       .  S
C2436      C2437   1.401       .  A
C2436      H2441   1.084       .  S
C2437      C2438   1.411       .  A
C2438      N2442   1.429       .  S
C2439      C2444   1.407       .  A
C2439      C2448   1.399       .  A
N2440      O2455   1.262       .  A
N2440      O2456   1.262       .  A
N2442      O2453   1.262       .  A
N2442      O2454   1.262       .  A
C2444      C2445   1.399       .  A
C2444      N2449   1.430       .  S
C2445      C2446   1.407       .  A
C2445      H2450   1.082       .  S
C2446      C2447   1.417       .  A
C2447      C2448   1.399       .  A
C2447      N2451   1.429       .  S
C2448      H2452   1.083       .  S
N2449      O2459   1.262       .  A
N2449      O2460   1.262       .  A
N2451      O2457   1.262       .  A
N2451      O2458   1.262       .  A
C2461      C2462   1.400       .  A
C2461      C2466   1.400       .  A
C2461      H2471   1.084       .  S
C2462      C2467   1.493       .  S
C2462      C2463   1.412       .  A
C2463      C2464   1.409       .  A
C2463      N2468   1.428       .  S
C2464      C2465   1.408       .  A
C2464      H2469   1.083       .  S
C2465      C2466   1.421       .  A
C2466      N2470   1.429       .  S
C2467      C2472   1.413       .  A
C2467      C2476   1.403       .  A
N2468      O2483   1.262       .  A
N2468      O2484   1.262       .  A
N2470      O2481   1.262       .  A
N2470      O2482   1.262       .  A
C2472      C2473   1.405       .  A
C2472      N2477   1.429       .  S
C2473      C2474   1.405       .  A
C2473      H2478   1.083       .  S
C2474      C2475   1.418       .  A
C2475      C2476   1.404       .  A
C2475      N2479   1.430       .  S
C2476      H2480   1.083       .  S
N2477      O2487   1.262       .  A
N2477      O2488   1.262       .  A
N2479      O2485   1.262       .  A
N2479      O2486   1.262       .  A
C2489      C2490   1.401       .  A
C2489      C2494   1.402       .  A
C2489      H2499   1.084       .  S
C2490      C2495   1.485       .  S
C2490      C2491   1.408       .  A
C2491      C2492   1.403       .  A
C2491      N2496   1.428       .  S
C2492      C2493   1.406       .  A
C2492      H2497   1.080       .  S
C2493      C2494   1.418       .  A
C2494      N2498   1.429       .  S
C2495      C2500   1.408       .  A
C2495      C2504   1.398       .  A
N2496      O2511   1.262       .  A
N2496      O2512   1.262       .  A
N2498      O2509   1.262       .  A
N2498      O2510   1.262       .  A
C2500      C2501   1.408       .  A
C2500      N2505   1.430       .  S
C2501      C2502   1.411       .  A
C2501      H2506   1.084       .  S
C2502      C2503   1.420       .  A
C2503      C2504   1.399       .  A
C2503      N2507   1.429       .  S
C2504      H2508   1.084       .  S
N2505      O2515   1.262       .  A
N2505      O2516   1.262       .  A
N2507      O2513   1.261       .  A
N2507      O2514   1.262       .  A
C2517      C2518   1.403       .  A
C2517      C2522   1.406       .  A
C2517      H2527   1.082       .  S
C2518      C2523   1.484       .  S
C2518      C2519   1.408       .  A
C2519      C2520   1.394       .  A
C2519      N2524   1.429       .  S
C2520      C2521   1.405       .  A
C2520      H2525   1.078       .  S
C2521      C2522   1.418       .  A
C2522      N2526   1.429       .  S
C2523      C2528   1.408       .  A
C2523      C2532   1.402       .  A
N2524      O2539   1.262       .  A
N2524      O2540   1.262       .  A
N2526      O2537   1.262       .  A
N2526      O2538   1.262       .  A
C2528      C2529   1.400       .  A
C2528      N2533   1.429       .  S
C2529      C2530   1.407       .  A
C2529      H2534   1.083       .  S
C2530      C2531   1.416       .  A
C2531      C2532   1.401       .  A
C2531      N2535   1.429       .  S
C2532      H2536   1.083       .  S
N2533      O2543   1.262       .  A
N2533      O2544   1.262       .  A
N2535      O2541   1.262       .  A
N2535      O2542   1.262       .  A
