geometry optimzed in LAMMPS
_audit_creation_date              2020-12-01 
_audit_creation_method            'lammps2cif' 
_symmetry_space_group_name_H-M    'P1' 
_symmetry_Int_Tables_number       1 
_symmetry_cell_setting            triclinic 
loop_ 
_symmetry_equiv_pos_as_xyz 
  x,y,z 
_cell_length_a                    51.92507615 
_cell_length_b                    51.89821484355622 
_cell_length_c                    105.84223203824565 
_cell_angle_alpha                 90.28901157246626 
_cell_angle_beta                  89.89926130266967 
_cell_angle_gamma                 120.50815821656889 
loop_ 
_atom_site_label 
_atom_site_type_symbol 
_atom_site_fract_x 
_atom_site_fract_y 
_atom_site_fract_z 
_atom_site_charge 
O1          O  0.91076411  0.30217306  0.49858909    -0.81300
O2          O  0.77538208  0.25519389  0.50108686    -0.66000
O3          O  0.85127338  0.26154867  0.50544200    -1.12600
C4          C  0.83729023  0.22987593  0.46240400     1.05600
O5          O  0.75679264  0.21109126  0.49176339    -0.79200
O6          O  0.79030065  0.18686981  0.48654295    -0.66800
Ni7        Ni  0.88420447  0.29672762  0.51244350     1.34900
C8          C  0.81236374  0.18686600  0.49166397     0.84300
O9          O  0.81217457  0.26974326  0.52111250    -0.79800
O10         O  0.86071313  0.29373611  0.52695995    -0.90000
C11         C  0.75322760  0.23127097  0.49688342     0.83900
O12         O  0.87673214  0.32639175  0.50545572    -0.68200
O13         O  0.80939235  0.21906938  0.46439546    -0.87500
C14         C  0.85337096  0.32508779  0.50100095     0.84700
C15         C  0.83311764  0.28415871  0.52916572     1.06300
H16         H  0.82108829  0.26732225  0.48125700     0.38100
O17         O  0.81735783  0.25043841  0.48640097    -1.10200
O18         O  0.83813444  0.21026602  0.49275255    -0.66800
Ni19       Ni  0.85471139  0.25205352  0.48829142     1.26300
O20         O  0.82909951  0.30056485  0.49928254    -0.67100
O21         O  0.85719724  0.24306546  0.47091084    -0.79400
C22         C  0.91526237  0.28205231  0.49400586     0.84100
O23         O  0.89329286  0.25670307  0.49091291    -0.66500
Ni24       Ni  0.78473050  0.21642767  0.47856638     1.27400
Ni25       Ni  0.81376251  0.25949287  0.50367800     1.26100
H26         H  0.84817082  0.24512498  0.51075567     0.38600
O27         O  0.97155824  0.24962285  0.31862393    -0.81300
O28         O  0.92866509  0.11389378  0.31559179    -0.66000
O29         O  0.93439603  0.18968589  0.31112821    -1.12600
C30         C  0.90212992  0.17611027  0.35407336     1.05600
O31         O  0.88539195  0.09538867  0.32553027    -0.79200
O32         O  0.86009153  0.12744074  0.33174949    -0.66800
Ni33       Ni  0.97049567  0.22342379  0.30538180     1.34900
C34         C  0.85845622  0.14714104  0.32531596     0.84300
O35         O  0.94385580  0.15118953  0.29567775    -0.79800
O36         O  0.97213107  0.20051940  0.29148623    -0.90000
C37         C  0.90505421  0.09172256  0.31998876     0.83900
O38         O  0.99870335  0.21726877  0.31457324    -0.68200
O39         O  0.89544700  0.14889781  0.35290057    -0.87500
C40         C  0.99767724  0.19328953  0.31791381     0.84700
C41         C  0.96138615  0.17303839  0.28854548     1.06300
H42         H  0.94112946  0.16178235  0.33533939     0.38100
O43         O  0.92367376  0.15641367  0.33024517    -1.10200
O44         O  0.88110980  0.17262065  0.32274488    -0.66800
Ni45       Ni  0.92270299  0.19234318  0.32793296     1.26300
O46         O  0.97378221  0.16801221  0.31763955    -0.67100
O47         O  0.91167305  0.19463830  0.34497844    -0.79400
C48         C  0.94990674  0.25248275  0.32248462     0.84100
O49         O  0.92473517  0.22958281  0.32488947    -0.66500
Ni50       Ni  0.89168289  0.12364972  0.33876322     1.27400
Ni51       Ni  0.93285034  0.15239441  0.31301464     1.26100
H52         H  0.91874919  0.18674383  0.30533611     0.38600
O53         O  0.82307563  0.75335556  0.32013779    -0.81300
O54         O  0.95547411  0.84917393  0.31705728    -0.66000
O55         O  0.88215935  0.77565482  0.31278302    -1.12600
C56         C  0.89876688  0.75961314  0.35567990     1.05600
O57         O  0.97634887  0.82584676  0.32608391    -0.79200
O58         O  0.94651350  0.76793468  0.33167520    -0.66800
Ni59       Ni  0.84785358  0.77443103  0.30587568     1.34900
C60         C  0.92575216  0.74493759  0.32623033     0.84300
O61         O  0.91789678  0.82513877  0.29727267    -0.79800
O62         O  0.87003289  0.79500987  0.29110061    -0.90000
C63         C  0.97854412  0.84861746  0.32058805     0.83900
O64         O  0.85315576  0.81144627  0.31231167    -0.68200
O65         O  0.92615508  0.77932978  0.35375961    -0.87500
C66         C  0.87520154  0.83431522  0.31730829     0.84700
C67         C  0.89680514  0.81612884  0.28909695     1.06300
H68         H  0.91076686  0.81234678  0.33706525     0.38100
O69         O  0.91574235  0.80029952  0.33175120    -1.10200
O70         O  0.89925097  0.74027390  0.32491465    -0.66800
Ni71       Ni  0.87990155  0.76260441  0.32983809     1.26300
O72         O  0.89993383  0.83587662  0.31964631    -0.67100
O73         O  0.87866317  0.75102403  0.34714884    -0.79400
C74         C  0.81953392  0.72896059  0.32452685     0.84100
O75         O  0.84216326  0.72671337  0.32724109    -0.66500
Ni76       Ni  0.94967220  0.80236883  0.33949176     1.27400
Ni77       Ni  0.91802024  0.81312944  0.31457978     1.26100
H78         H  0.88655138  0.76336408  0.30733127     0.38600
O79         O  0.76311443  0.64417345  0.49933409    -0.81300
O80         O  0.80802690  0.55593930  0.50462169    -0.66000
O81         O  0.80287894  0.62652491  0.50781847    -1.12600
C82         C  0.83768004  0.64250254  0.46512738     1.05600
O83         O  0.85285321  0.58181704  0.49604435    -0.79200
O84         O  0.87845600  0.63952207  0.48989967    -0.66800
Ni85       Ni  0.76751028  0.62468404  0.51391379     1.34900
C86         C  0.87878189  0.66205778  0.49477863     0.84300
O87         O  0.79064902  0.57818951  0.52391831    -0.79800
O88         O  0.76897107  0.60511644  0.52894691    -0.90000
C89         C  0.83199184  0.55762364  0.50070522     0.83900
O90         O  0.73803471  0.58682688  0.50709117    -0.68200
O91         O  0.84726720  0.62469803  0.46752563    -0.87500
C92         C  0.73942318  0.56493371  0.50248546     0.84700
C93         C  0.77604229  0.58546941  0.53151643     1.06300
H94         H  0.79870234  0.58985128  0.48405624     0.38100
O95         O  0.81522401  0.60307817  0.48945578    -1.10200
O96         O  0.85561353  0.66457442  0.49570521    -0.66800
Ni97       Ni  0.81402640  0.63907688  0.49068715     1.26300
O98         O  0.76380082  0.56518577  0.50110913    -0.67100
O99         O  0.82460215  0.65001908  0.47332639    -0.79400
C100        C  0.78311543  0.66871867  0.49456849     0.84100
O101        O  0.80919532  0.67316646  0.49252683    -0.66500
Ni102      Ni  0.84883147  0.60348430  0.48219152     1.27400
Ni103      Ni  0.80407291  0.59048065  0.50665768     1.26100
H104        H  0.81895724  0.64005101  0.51334011     0.38600
O105        O  0.31684531  0.10179808  0.31673734    -0.81300
O106        O  0.22512260  0.14429109  0.31551381    -0.66000
O107        O  0.29657890  0.14131315  0.31074337    -1.12600
C108        C  0.31142606  0.16957859  0.35419895     1.05600
O109        O  0.25098200  0.18855554  0.32461713    -0.79200
O110        O  0.30867018  0.21383921  0.33031594    -0.66800
Ni111      Ni  0.29547414  0.10741699  0.30311024     1.34900
C112        C  0.33114191  0.21458984  0.32522468     0.84300
O113        O  0.24801059  0.13134406  0.29529661    -0.79800
O114        O  0.27446203  0.11021698  0.28875139    -0.90000
C115        C  0.22680313  0.16801365  0.31977528     0.83900
O116        O  0.25841037  0.07641014  0.30989473    -0.68200
O117        O  0.29459307  0.18045394  0.35214407    -0.87500
C118        C  0.23615065  0.07658577  0.31480434     0.84700
C119        C  0.25500376  0.11797088  0.28697999     1.06300
H120        H  0.25944115  0.13315354  0.33500410     0.38100
O121        O  0.27263452  0.15031132  0.32993549    -1.10200
O122        O  0.33407202  0.19176889  0.32409204    -0.66800
Ni123      Ni  0.30884435  0.14973024  0.32805490     1.26300
O124        O  0.23567898  0.10040292  0.31695610    -0.67100
O125        O  0.31915674  0.15747963  0.34561048    -0.79400
C126        C  0.34094016  0.12179452  0.32191916     0.84100
O127        O  0.34358667  0.14642579  0.32547754    -0.66500
Ni128      Ni  0.27312747  0.18339573  0.33794333     1.27400
Ni129      Ni  0.26017278  0.14164440  0.31267878     1.26100
H130        H  0.30988773  0.15841726  0.30565970     0.38600
O131        O  0.41736879  0.15063551  0.50053826    -0.81300
O132        O  0.51083094  0.28572155  0.50086041    -0.66000
O133        O  0.43960640  0.21114051  0.50681577    -1.12600
C134        C  0.41944142  0.22047188  0.46368645     1.05600
O135        O  0.48607779  0.30399686  0.49097465    -0.79200
O136        O  0.42757596  0.27134259  0.48613338    -0.66800
Ni137      Ni  0.44112441  0.17819696  0.51378090     1.34900
C138        C  0.40563233  0.25117162  0.49228179     0.84300
O139        O  0.48968129  0.25083660  0.52148725    -0.79800
O140        O  0.46461601  0.20260294  0.52766858    -0.90000
C141        C  0.50964622  0.30768313  0.49630969     0.83900
O142        O  0.47660665  0.18365412  0.50572739    -0.68200
O143        O  0.43876063  0.24827023  0.46479054    -0.87500
C144        C  0.49901370  0.20644504  0.50097399     0.84700
C145        C  0.48374916  0.23019867  0.52955468     1.06300
H146        H  0.47387168  0.23728259  0.48199849     0.38100
O147        O  0.46184224  0.24259000  0.48713637    -1.10200
O148        O  0.40222531  0.22542799  0.49446363    -0.66800
Ni149      Ni  0.42500705  0.20637992  0.48992664     1.26300
O150        O  0.50016227  0.23125962  0.49959562    -0.67100
O151        O  0.41179042  0.20207683  0.47278884    -0.79400
C152        C  0.39307753  0.14660601  0.49578937     0.84100
O153        O  0.38994906  0.16877375  0.49333922    -0.66500
Ni154      Ni  0.46211750  0.27459270  0.47838407     1.27400
Ni155      Ni  0.47601827  0.24793160  0.50423178     1.26100
H156        H  0.42716009  0.21510952  0.51233563     0.38600
O157        O  0.15195706  0.42803075  0.98726473    -0.81300
O158        O  0.28542736  0.51831420  0.98226820    -0.66000
O159        O  0.20989851  0.44656082  0.97892615    -1.12600
C160        C  0.22924208  0.43024923  0.02119096     1.05600
O161        O  0.30505273  0.49304511  0.99038352    -0.79200
O162        O  0.27313900  0.43527964  0.99591493    -0.66800
Ni163      Ni  0.17605672  0.44716904  0.97255727     1.34900
C164        C  0.25062146  0.41242321  0.99125725     0.84300
O165        O  0.24601254  0.49508220  0.96297751    -0.79800
O166        O  0.19753410  0.46607438  0.95740079    -0.90000
C167        C  0.30806803  0.51704562  0.98586690     0.83900
O168        O  0.18420134  0.48530274  0.97880963    -0.68200
O169        O  0.25679160  0.44805515  0.01864398    -0.87500
C170        C  0.20713851  0.50741031  0.98371662     0.84700
C171        C  0.22444867  0.48647586  0.95507098     1.06300
H172        H  0.24250738  0.48353202  0.00280726     0.38100
O173        O  0.24574226  0.47051973  0.99730918    -1.10200
O174        O  0.22451304  0.40907016  0.99088084    -0.66800
Ni175      Ni  0.20835952  0.43412065  0.99602180     1.26300
O176        O  0.23120696  0.50743519  0.98576323    -0.67100
O177        O  0.20815741  0.42322152  0.01328214    -0.79400
C178        C  0.14734574  0.40350924  0.99196670     0.84100
O179        O  0.16921631  0.39966314  0.99418055    -0.66500
Ni180      Ni  0.27942511  0.47044039  0.00415419     1.27400
Ni181      Ni  0.24703692  0.48310929  0.98019079     1.26100
H182        H  0.21293848  0.43340177  0.97343642     0.38600
O183        O  0.10322133  0.32097545  0.16638993    -0.81300
O184        O  0.14610025  0.22975072  0.16877757    -0.66000
O185        O  0.14250579  0.30100731  0.17342583    -1.12600
C186        C  0.17670270  0.31850026  0.13083370     1.05600
O187        O  0.19152261  0.25676116  0.16106362    -0.79200
O188        O  0.21751126  0.31453085  0.15568260    -0.66800
Ni189      Ni  0.10784743  0.29957320  0.18025026     1.34900
C190        C  0.21765408  0.33686129  0.16065082     0.84300
O191        O  0.13049461  0.25151721  0.18867881    -0.79800
O192        O  0.10949811  0.27841097  0.19474231    -0.90000
C193        C  0.17032360  0.23189547  0.16497219     0.83900
O194        O  0.07766226  0.26256461  0.17301115    -0.68200
O195        O  0.18705333  0.30131226  0.13313030    -0.87500
C196        C  0.07837846  0.24070236  0.16793880     0.84700
C197        C  0.11668744  0.25860744  0.19673240     1.06300
H198        H  0.13767521  0.26523720  0.14904772     0.38100
O199        O  0.15408169  0.27818707  0.15455801    -1.10200
O200        O  0.19458841  0.33952582  0.16131228    -0.66800
Ni201      Ni  0.15305150  0.31415551  0.15633782     1.26300
O202        O  0.10242459  0.24044646  0.16617572    -0.67100
O203        O  0.16319579  0.32546113  0.13904235    -0.79400
C204        C  0.12327577  0.34496018  0.16122463     0.84100
O205        O  0.14872463  0.34841346  0.15860630    -0.66500
Ni206      Ni  0.18814962  0.27920674  0.14745621     1.27400
Ni207      Ni  0.14305139  0.26465136  0.17155989     1.26100
H208        H  0.15897357  0.31404956  0.17889787     0.38600
O209        O  0.64531526  0.77301277  0.98872971    -0.81300
O210        O  0.55461707  0.81486838  0.98480865    -0.66000
O211        O  0.62574595  0.81116876  0.98057012    -1.12600
C212        C  0.64407266  0.84736923  0.02301578     1.05600
O213        O  0.58163485  0.86061628  0.99252424    -0.79200
O214        O  0.63925877  0.88711213  0.99842417    -0.66800
Ni215      Ni  0.62472703  0.77639149  0.97428785     1.34900
C216        C  0.66121813  0.88737058  0.99305251     0.84300
O217        O  0.57603154  0.79731739  0.96518977    -0.79800
O218        O  0.60435643  0.77754008  0.95943411    -0.90000
C219        C  0.55708753  0.83960900  0.98814966     0.83900
O220        O  0.58730242  0.74626323  0.98109635    -0.68200
O221        O  0.62570178  0.85636873  0.02084176    -0.87500
C222        C  0.56534776  0.74693419  0.98604390     0.84700
C223        C  0.58394824  0.78381457  0.95726464     1.06300
H224        H  0.59081526  0.80717071  0.00485842     0.38100
O225        O  0.60333392  0.82348182  0.99927163    -1.10200
O226        O  0.66393167  0.86437612  0.99206136    -0.66800
Ni227      Ni  0.63968875  0.82318762  0.99749254     1.26300
O228        O  0.56526930  0.77102948  0.98803082    -0.67100
O229        O  0.65188345  0.83478387  0.01468059    -0.79400
C230        C  0.67062423  0.79386010  0.99258413     0.84100
O231        O  0.67432834  0.81952409  0.99502983    -0.66500
Ni232      Ni  0.60380773  0.85733209  0.00633977     1.27400
Ni233      Ni  0.58935965  0.81137913  0.98229522     1.26100
H234        H  0.63843061  0.82722962  0.97491006     0.38600
O235        O  0.75603512  0.82679105  0.16699391    -0.81300
O236        O  0.84972396  0.96116774  0.17053645    -0.66000
O237        O  0.77787402  0.88586040  0.17495315    -1.12600
C238        C  0.75916787  0.90276081  0.13249611     1.05600
O239        O  0.82396891  0.98004541  0.16234854    -0.79200
O240        O  0.76621160  0.94900355  0.15653758    -0.66800
Ni241      Ni  0.77933278  0.85201624  0.18086107     1.34900
C242        C  0.74392052  0.92782432  0.16210095     0.84300
O243        O  0.82766122  0.92324092  0.19027289    -0.79800
O244        O  0.80208285  0.87422788  0.19530339    -0.90000
C245        C  0.84842292  0.98346833  0.16649874     0.83900
O246        O  0.81536108  0.85868222  0.17272410    -0.68200
O247        O  0.77879917  0.93018468  0.13441601    -0.87500
C248        C  0.83768204  0.88213907  0.16829191     0.84700
C249        C  0.82118023  0.90150899  0.19779856     1.06300
H250        H  0.81264398  0.91579333  0.15063354     0.38100
O251        O  0.80051306  0.92023528  0.15613479    -1.10200
O252        O  0.74051496  0.90184830  0.16355819    -0.66800
Ni253      Ni  0.76353220  0.88367496  0.15808496     1.26300
O254        O  0.83850707  0.90691459  0.16760858    -0.67100
O255        O  0.75078902  0.88260533  0.14095732    -0.79400
C256        C  0.73110899  0.82293566  0.16313310     0.84100
O257        O  0.72829768  0.84535191  0.16068457    -0.66500
Ni258      Ni  0.80123695  0.95377627  0.14873507     1.27400
Ni259      Ni  0.81446196  0.92297206  0.17316070     1.26100
H260        H  0.76532862  0.88902983  0.18075092     0.38600
O261        O  0.30279594  0.92217156  0.98233044    -0.81300
O262        O  0.26046628  0.78655218  0.98025942    -0.66000
O263        O  0.26486753  0.86171697  0.97572469    -1.12600
C264        C  0.23686575  0.84893627  0.01935801     1.05600
O265        O  0.21730358  0.76873721  0.99012259    -0.79200
O266        O  0.19258588  0.80056363  0.99755188    -0.66800
Ni267      Ni  0.29975687  0.89522468  0.96899847     1.34900
C268        C  0.19042931  0.82016954  0.99128082     0.84300
O269        O  0.27353382  0.82269331  0.96005988    -0.79800
O270        O  0.29953713  0.87159988  0.95497284    -0.90000
C271        C  0.23698862  0.76465209  0.98488535     0.83900
O272        O  0.32958738  0.88993223  0.97721596    -0.68200
O273        O  0.22995290  0.82166957  0.01805560    -0.87500
C274        C  0.32924536  0.86658064  0.98101462     0.84700
C275        C  0.28953335  0.84403179  0.95242961     1.06300
H276        H  0.27390862  0.83457439  0.99977261     0.38100
O277        O  0.25611400  0.82918594  0.99492084    -1.10200
O278        O  0.21296549  0.84545067  0.98837559    -0.66800
Ni279      Ni  0.25502311  0.86502279  0.99284392     1.26300
O280        O  0.30548290  0.84119294  0.98158930    -0.67100
O281        O  0.24562083  0.86746721  0.01022159    -0.79400
C282        C  0.28196351  0.92521745  0.98711169     0.84100
O283        O  0.25708494  0.90242373  0.99002922    -0.66500
Ni284      Ni  0.22471735  0.79649820  0.00369295     1.27400
Ni285      Ni  0.26401441  0.82471860  0.97756242     1.26100
H286        H  0.24839751  0.85816745  0.97031861     0.38600
O287        O  0.25196550  0.97832442  0.16488040    -0.81300
O288        O  0.11591194  0.93325049  0.16668789    -0.66000
O289        O  0.19165975  0.93874667  0.17146233    -1.12600
C290        C  0.18004387  0.91032836  0.12792304     1.05600
O291        O  0.09790840  0.89039518  0.15638399    -0.79200
O292        O  0.13081738  0.86571965  0.15054807    -0.66800
Ni293      Ni  0.22482517  0.97414905  0.17829235     1.34900
C294        C  0.15156392  0.86443410  0.15630357     0.84300
O295        O  0.15224837  0.94704575  0.18702030    -0.79800
O296        O  0.20107892  0.97300184  0.19239950    -0.90000
C297        C  0.09403475  0.91019318  0.16169960     0.83900
O298        O  0.21856014  0.00363773  0.17033398    -0.68200
O299        O  0.15225370  0.90105579  0.12937000    -0.87500
C300        C  0.19494563  0.00245778  0.16631549     0.84700
C301        C  0.17348574  0.96300917  0.19477460     1.06300
H302        H  0.16366599  0.94673117  0.14727352     0.38100
O303        O  0.15889270  0.92918302  0.15216158    -1.10200
O304        O  0.17722679  0.88734098  0.15844889    -0.66800
Ni305      Ni  0.19553040  0.92950244  0.15431870     1.26300
O306        O  0.17009831  0.97823251  0.16546817    -0.67100
O307        O  0.19894433  0.92120182  0.13691991    -0.79400
C308        C  0.25572998  0.95798722  0.16002029     0.84100
O309        O  0.23337779  0.93267995  0.15721579    -0.66500
Ni310      Ni  0.12662176  0.89692720  0.14338387     1.27400
Ni311      Ni  0.15426537  0.93711426  0.16952527     1.26100
H312        H  0.18844794  0.92231791  0.17679578     0.38600
O313        O  0.42957023  0.91439964  0.32242746    -0.81300
O314        O  0.56520066  0.00929289  0.32322868    -0.66000
O315        O  0.49047541  0.93732780  0.31810352    -1.12600
C316        C  0.50468117  0.92037314  0.36106642     1.05600
O317        O  0.58266273  0.98160452  0.33079256    -0.79200
O318        O  0.54944960  0.92320132  0.33769678    -0.66800
Ni319      Ni  0.45819237  0.93672985  0.30940348     1.34900
C320        C  0.52631322  0.90040683  0.33329255     0.84300
O321        O  0.53037792  0.98601083  0.30298218    -0.79800
O322        O  0.48369894  0.95860717  0.29540331    -0.90000
C323        C  0.58713909  0.00588214  0.32586216     0.83900
O324        O  0.46245392  0.97220476  0.31665211    -0.68200
O325        O  0.53224105  0.93925644  0.35899531    -0.87500
C326        C  0.48310769  0.99462066  0.32246128     0.84700
C327        C  0.51142559  0.97781720  0.29401405     1.06300
H328        H  0.51946415  0.97441713  0.34272211     0.38100
O329        O  0.52301207  0.96128671  0.33743529    -1.10200
O330        O  0.50187866  0.89978537  0.33141967    -0.66800
Ni331      Ni  0.48589330  0.92491719  0.33544094     1.26300
O332        O  0.50883108  0.99793262  0.32457738    -0.67100
O333        O  0.48380467  0.91332535  0.35294426    -0.79400
C334        C  0.42572093  0.89102661  0.32796501     0.84100
O335        O  0.44767107  0.88991036  0.33260687    -0.66500
Ni336      Ni  0.55601162  0.96026825  0.34460166     1.27400
Ni337      Ni  0.52707105  0.97425956  0.32032200     1.26100
H338        H  0.49525139  0.92456301  0.31318792     0.38600
O339        O  0.55362838  0.16232490  0.15858842    -0.81300
O340        O  0.59354612  0.06800141  0.15691158    -0.66000
O341        O  0.59184485  0.13982594  0.16233483    -1.12600
C342        C  0.62242765  0.15740881  0.11929798     1.05600
O343        O  0.63866149  0.09460915  0.14867879    -0.79200
O344        O  0.66461204  0.15382657  0.14268599    -0.66800
Ni345      Ni  0.56022793  0.14002470  0.17134677     1.34900
C346        C  0.66440584  0.17659980  0.14703905     0.84300
O347        O  0.58345422  0.09138155  0.17733455    -0.79800
O348        O  0.56408596  0.11812434  0.18516637    -0.90000
C349        C  0.61843584  0.07070950  0.15385883     0.83900
O350        O  0.52845773  0.10469996  0.16402959    -0.68200
O351        O  0.63152101  0.13908166  0.12129903    -0.87500
C352        C  0.52661436  0.08253043  0.15810178     0.84700
C353        C  0.57289580  0.09935051  0.18642341     1.06300
H354        H  0.58272320  0.10260910  0.13763837     0.38100
O355        O  0.59969443  0.11587883  0.14282460    -1.10200
O356        O  0.64057608  0.17730844  0.14871247    -0.66800
Ni357      Ni  0.59906712  0.15207800  0.14496254     1.26300
O358        O  0.54898384  0.07925997  0.15598689    -0.67100
O359        O  0.60810058  0.16368497  0.12744113    -0.79400
C360        C  0.57277521  0.18547736  0.15269290     0.84100
O361        O  0.59592638  0.18691592  0.14789211    -0.66500
Ni362      Ni  0.63374547  0.11717395  0.13536571     1.27400
Ni363      Ni  0.59125820  0.10305644  0.15997376     1.26100
H364        H  0.60969085  0.15274034  0.16713648     0.38600
O365        O  0.15695022  0.54778686  0.32440120    -0.81300
O366        O  0.06273897  0.58917117  0.32313748    -0.66000
O367        O  0.13338847  0.58437465  0.31884502    -1.12600
C368        C  0.14974753  0.61744468  0.36181852     1.05600
O369        O  0.09110913  0.63429467  0.33114653    -0.79200
O370        O  0.14815506  0.65917409  0.33942390    -0.66800
Ni371      Ni  0.13262538  0.55063147  0.31140191     1.34900
C372        C  0.16991646  0.65927389  0.33388353     0.84300
O373        O  0.08591925  0.57572174  0.30333795    -0.79800
O374        O  0.10870311  0.55053893  0.29749545    -0.90000
C375        C  0.06668717  0.61472314  0.32606912     0.83900
O376        O  0.09843534  0.52131327  0.32013371    -0.68200
O377        O  0.12916348  0.62365013  0.36006176    -0.87500
C378        C  0.07545276  0.52049919  0.32470689     0.84700
C379        C  0.09165709  0.56105559  0.29523893     1.06300
H380        H  0.09674169  0.57722248  0.34306194     0.38100
O381        O  0.10974871  0.59422658  0.33787646    -1.10200
O382        O  0.17007311  0.63550570  0.33118931    -0.66800
Ni383      Ni  0.14633742  0.59446674  0.33602389     1.26300
O384        O  0.07193266  0.54309698  0.32505940    -0.67100
O385        O  0.15857273  0.60592892  0.35335622    -0.79400
C386        C  0.18077903  0.56892520  0.32923020     0.84100
O387        O  0.18176811  0.59245429  0.33332447    -0.66500
Ni388      Ni  0.11024100  0.62780512  0.34534322     1.27400
Ni389      Ni  0.09710703  0.58497792  0.32068977     1.26100
H390        H  0.14638383  0.60110634  0.31353425     0.38600
O391        O  0.91775199  0.43736753  0.15350107    -0.81300
O392        O  0.01333122  0.57126688  0.15879717    -0.66000
O393        O  0.94056719  0.49615573  0.16106725    -1.12600
C394        C  0.92694892  0.52012367  0.11907689     1.05600
O395        O  0.98589743  0.58993431  0.15223958    -0.79200
O396        O  0.92851233  0.55983649  0.14324841    -0.66800
Ni397      Ni  0.93843893  0.46156509  0.16795182     1.34900
C398        C  0.90568626  0.53661110  0.14752346     0.84300
O399        O  0.98785458  0.53154083  0.17759436    -0.79800
O400        O  0.95878003  0.48319848  0.18300075    -0.90000
C401        C  0.01029909  0.59374237  0.15679569     0.83900
O402        O  0.97441202  0.46694924  0.16093248    -0.68200
O403        O  0.94753259  0.54678888  0.12179759    -0.87500
C404        C  0.99751310  0.48855170  0.15600028     0.84700
C405        C  0.97813078  0.51035552  0.18563339     1.06300
H406        H  0.97914908  0.52928309  0.13758733     0.38100
O407        O  0.96608269  0.53238946  0.14308734    -1.10200
O408        O  0.90501443  0.51210250  0.14919990    -0.66800
Ni409      Ni  0.92898401  0.49573563  0.14384515     1.26300
O410        O  0.00150793  0.51488011  0.15503247    -0.67100
O411        O  0.91815718  0.49788023  0.12658105    -0.79400
C412        C  0.89396312  0.43465166  0.14887136     0.84100
O413        O  0.89311140  0.45759879  0.14541314    -0.66500
Ni414      Ni  0.96654958  0.56711005  0.13719953     1.27400
Ni415      Ni  0.97785050  0.53264001  0.16023575     1.26100
H416        H  0.92782427  0.50007853  0.16641363     0.38600
O417        O  0.52357172  0.64234019  0.32651360    -0.81300
O418        O  0.48111290  0.50653262  0.32587867    -0.66000
O419        O  0.48609971  0.58169289  0.32106824    -1.12600
C420        C  0.44903166  0.56495927  0.36337321     1.05600
O421        O  0.43504514  0.48853760  0.33285299    -0.79200
O422        O  0.40949244  0.52128659  0.33962502    -0.66800
Ni423      Ni  0.51962547  0.61468416  0.31340199     1.34900
C424        C  0.41058299  0.54407088  0.33466266     0.84300
O425        O  0.49559104  0.54254748  0.30594189    -0.79800
O426        O  0.51843248  0.59022112  0.29940396    -0.90000
C427        C  0.45530494  0.48441202  0.32818131     0.83900
O428        O  0.54942582  0.61005789  0.32163648    -0.68200
O429        O  0.44141666  0.53770432  0.36136566    -0.87500
C430        C  0.55011505  0.58853030  0.32692432     0.84700
C431        C  0.50889600  0.56248648  0.29750341     1.06300
H432        H  0.49086360  0.55173526  0.34569596     0.38100
O433        O  0.47457970  0.54808982  0.34014332    -1.10200
O434        O  0.43489945  0.56841632  0.33288486    -0.66800
Ni435      Ni  0.47550521  0.58500428  0.33814340     1.26300
O436        O  0.52707087  0.56250438  0.32812784    -0.67100
O437        O  0.46306757  0.58597313  0.35533431    -0.79400
C438        C  0.50281688  0.64546900  0.33126924     0.84100
O439        O  0.47896853  0.62302815  0.33532613    -0.66500
Ni440      Ni  0.43953881  0.51462774  0.34681540     1.27400
Ni441      Ni  0.48534928  0.54487855  0.32316574     1.26100
H442        H  0.46940033  0.57737464  0.31565252     0.38600
O443        O  0.64347030  0.52364122  0.15747902    -0.81300
O444        O  0.50922756  0.48411135  0.15963832    -0.66000
O445        O  0.58313423  0.48543047  0.16283611    -1.12600
C446        C  0.56499080  0.45526159  0.11972344     1.05600
O447        O  0.48940274  0.43895454  0.15125636    -0.79200
O448        O  0.52082130  0.41271154  0.14374960    -0.66800
Ni449      Ni  0.61667612  0.51687954  0.17129517     1.34900
C450        C  0.54403224  0.41274317  0.14754934     0.84300
O451        O  0.54568770  0.49455887  0.17925748    -0.79800
O452        O  0.59284317  0.51254090  0.18595332    -0.90000
C453        C  0.48638624  0.45923279  0.15667375     0.83900
O454        O  0.61257710  0.54892023  0.16514755    -0.68200
O455        O  0.53768710  0.44610208  0.12241547    -0.87500
C456        C  0.59196165  0.55113593  0.15977899     0.84700
C457        C  0.56550673  0.50446602  0.18793959     1.06300
H458        H  0.55273728  0.49481159  0.13919600     0.38100
O459        O  0.54923714  0.47781758  0.14420501    -1.10200
O460        O  0.56923318  0.43649905  0.14876654    -0.66800
Ni461      Ni  0.58608942  0.47812937  0.14524592     1.26300
O462        O  0.56590160  0.52874321  0.15774039    -0.67100
O463        O  0.58664493  0.46938285  0.12751552    -0.79400
C464        C  0.64668432  0.50384439  0.15179987     0.84100
O465        O  0.62416268  0.48074508  0.14718933    -0.66500
Ni466      Ni  0.51513426  0.44382414  0.13715487     1.27400
Ni467      Ni  0.54699321  0.48639432  0.16161807     1.26100
H468        H  0.57832602  0.46755363  0.16748043     0.38600
O469        O  0.21379273  0.48432672  0.49161187    -0.81300
O470        O  0.25454817  0.39151767  0.49391861    -0.66000
O471        O  0.25220610  0.46362231  0.49747317    -1.12600
C472        C  0.28953844  0.48099036  0.45550884     1.05600
O473        O  0.30096413  0.41883518  0.48712144    -0.79200
O474        O  0.32754292  0.47784661  0.48136412    -0.66800
Ni475      Ni  0.22009186  0.46463273  0.50555892     1.34900
C476        C  0.32638340  0.50080345  0.48466671     0.84300
O477        O  0.24124196  0.41574033  0.51340738    -0.79800
O478        O  0.22400150  0.44522939  0.52026014    -0.90000
C479        C  0.28000551  0.39452064  0.49171759     0.83900
O480        O  0.18875309  0.42787131  0.49907008    -0.68200
O481        O  0.29943199  0.46380602  0.45858377    -0.87500
C482        C  0.18726207  0.40578247  0.49320337     0.84700
C483        C  0.23131949  0.42548544  0.52211788     1.06300
H484        H  0.24700175  0.42563041  0.47337973     0.38100
O485        O  0.26290169  0.43927191  0.47894535    -1.10200
O486        O  0.30230261  0.50145897  0.48465836    -0.66800
Ni487      Ni  0.26142353  0.47526019  0.48007810     1.26300
O488        O  0.20995135  0.40298598  0.49108306    -0.67100
O489        O  0.27265501  0.48618200  0.46262984    -0.79400
C490        C  0.23380379  0.50827610  0.48650473     0.84100
O491        O  0.25731747  0.50987238  0.48203759    -0.66500
Ni492      Ni  0.29872108  0.44148529  0.47314911     1.27400
Ni493      Ni  0.25173661  0.42675807  0.49604836     1.26100
H494        H  0.26957856  0.47668665  0.50250070     0.38600
O495        O  0.09373759  0.24499058  0.66079726    -0.81300
O496        O  0.22782993  0.34117735  0.65926994    -0.66000
O497        O  0.15366611  0.26840767  0.65490581    -1.12600
C498        C  0.17178126  0.25007725  0.69706022     1.05600
O499        O  0.24759824  0.31561617  0.66690066    -0.79200
O500        O  0.21611662  0.25672557  0.67270237    -0.66800
Ni501      Ni  0.12017835  0.26746461  0.64723652     1.34900
C502        C  0.19322968  0.23386131  0.66818605     0.84300
O503        O  0.19163546  0.31659627  0.63942705    -0.79800
O504        O  0.14388248  0.28975239  0.63291696    -0.90000
C505        C  0.25059569  0.33950705  0.66222322     0.83900
O506        O  0.12451422  0.30251014  0.65491670    -0.68200
O507        O  0.19894104  0.26979091  0.69481492    -0.87500
C508        C  0.14594587  0.32532428  0.66014469     0.84700
C509        C  0.17151958  0.30852046  0.63094531     1.06300
H510        H  0.18384722  0.30541025  0.67933560     0.38100
O511        O  0.18756745  0.29265597  0.67388043    -1.10200
O512        O  0.16802158  0.23203448  0.66709598    -0.66800
Ni513      Ni  0.15085252  0.25555600  0.67207270     1.26300
O514        O  0.17201475  0.32901035  0.66145782    -0.67100
O515        O  0.15028330  0.24319510  0.68931930    -0.79400
C516        C  0.09046309  0.22099438  0.66542689     0.84100
O517        O  0.11292506  0.21988592  0.66943314    -0.66500
Ni518      Ni  0.22158689  0.29251117  0.68053166     1.27400
Ni519      Ni  0.19008526  0.30549456  0.65676818     1.26100
H520        H  0.15808103  0.25592550  0.64960250     0.38600
O521        O  0.30463097  0.85042923  0.49018777    -0.81300
O522        O  0.17050189  0.80967509  0.49043484    -0.66000
O523        O  0.24451216  0.81244094  0.49562273    -1.12600
C524        C  0.22728705  0.77469181  0.45366664     1.05600
O525        O  0.15093660  0.76295333  0.48398924    -0.79200
O526        O  0.18340668  0.73606540  0.47862243    -0.66800
Ni527      Ni  0.27755432  0.84565886  0.50356644     1.34900
C528        C  0.20700060  0.73724951  0.48271038     0.84300
O529        O  0.20614644  0.82334357  0.51044921    -0.79800
O530        O  0.25311826  0.84333040  0.51771038    -0.90000
C531        C  0.14775338  0.78423384  0.48818435     0.83900
O532        O  0.27321784  0.87622382  0.49592203    -0.68200
O533        O  0.19983586  0.76516936  0.45618978    -0.87500
C534        C  0.25253165  0.87699687  0.48991041     0.84700
C535        C  0.22551144  0.83474744  0.51925054     1.06300
H536        H  0.21408524  0.81683580  0.47079820     0.38100
O537        O  0.21085945  0.80099357  0.47650914    -1.10200
O538        O  0.23193905  0.76146806  0.48340220    -0.66800
Ni539      Ni  0.24800894  0.80226088  0.47850781     1.26300
O540        O  0.22673697  0.85404557  0.48812783    -0.67100
O541        O  0.24892637  0.79052613  0.46125885    -0.79400
C542        C  0.30837026  0.82980163  0.48575697     0.84100
O543        O  0.28631256  0.80600486  0.48134211    -0.66500
Ni544      Ni  0.17701489  0.76529691  0.47039947     1.27400
Ni545      Ni  0.20818312  0.81255891  0.49334355     1.26100
H546        H  0.23979826  0.79549323  0.50092018     0.38600
O547        O  0.18574636  0.97462869  0.65673502    -0.81300
O548        O  0.14212002  0.83882590  0.65588732    -0.66000
O549        O  0.14669621  0.91404685  0.65152812    -1.12600
C550        C  0.11185865  0.89789672  0.69392499     1.05600
O551        O  0.09655216  0.82040058  0.66346646    -0.79200
O552        O  0.07142426  0.85381275  0.66926575    -0.66800
Ni553      Ni  0.17955119  0.94677451  0.64335724     1.34900
C554        C  0.07277577  0.87734931  0.66504408     0.84300
O555        O  0.15476934  0.87469920  0.63601201    -0.79800
O556        O  0.17589334  0.92199683  0.62907967    -0.90000
C557        C  0.11695444  0.81650126  0.65883254     0.83900
O558        O  0.21012337  0.94165441  0.65055744    -0.68200
O559        O  0.10208361  0.87035936  0.69144696    -0.87500
C560        C  0.21082434  0.92021530  0.65592332     0.84700
C561        C  0.16643257  0.89423276  0.62732528     1.06300
H562        H  0.15254775  0.88332990  0.67588220     0.38100
O563        O  0.13618015  0.88027970  0.67049339    -1.10200
O564        O  0.09706421  0.90216929  0.66426745    -0.66800
Ni565      Ni  0.13798564  0.91777533  0.66883457     1.26300
O566        O  0.18768884  0.89460369  0.65772165    -0.67100
O567        O  0.12748759  0.91920588  0.68623585    -0.79400
C568        C  0.16591217  0.97836745  0.66205564     0.84100
O569        O  0.14221074  0.95626072  0.66639807    -0.66500
Ni570      Ni  0.10074990  0.84704525  0.67711363     1.27400
Ni571      Ni  0.14580599  0.87706910  0.65335267     1.26100
H572        H  0.12949635  0.90975895  0.64645656     0.38600
O573        O  0.57964648  0.76172315  0.48685638    -0.81300
O574        O  0.67390290  0.89470085  0.49257084    -0.66000
O575        O  0.60092825  0.81974579  0.49498142    -1.12600
C576        C  0.58279333  0.84583646  0.45451276     1.05600
O577        O  0.64657557  0.91478900  0.48772630    -0.79200
O578        O  0.58734401  0.88346834  0.48219014    -0.66800
Ni579      Ni  0.59928537  0.78510215  0.50160067     1.34900
C580        C  0.56425572  0.85867133  0.48490651     0.84300
O581        O  0.64978849  0.85397173  0.51109491    -0.79800
O582        O  0.61887280  0.80623561  0.51685546    -0.90000
C583        C  0.67114855  0.91759095  0.49152226     0.83900
O584        O  0.63568648  0.79125725  0.49474671    -0.68200
O585        O  0.59991875  0.87263125  0.45843378    -0.87500
C586        C  0.65750753  0.81241412  0.48896720     0.84700
C587        C  0.63933924  0.83309996  0.51929985     1.06300
H588        H  0.63819355  0.85609857  0.47131221     0.38100
O589        O  0.62501758  0.85751575  0.47737148    -1.10200
O590        O  0.56318742  0.83385878  0.48367818    -0.66800
Ni591      Ni  0.58872376  0.81978188  0.47787043     1.26300
O592        O  0.66072741  0.83833904  0.48761726    -0.67100
O593        O  0.57755162  0.82258430  0.46077109    -0.79400
C594        C  0.55528896  0.75822243  0.48257428     0.84100
O595        O  0.55366861  0.78076999  0.47915239    -0.66500
Ni596      Ni  0.62306685  0.89216326  0.47329037     1.27400
Ni597      Ni  0.63821782  0.85623281  0.49407970     1.26100
H598        H  0.58840744  0.82357056  0.50051507     0.38600
O599        O  0.81960936  0.88070590  0.65849885    -0.81300
O600        O  0.72400075  0.92019697  0.65677668    -0.66000
O601        O  0.79573980  0.91715272  0.65294591    -1.12600
C602        C  0.81380909  0.95499942  0.69512844     1.05600
O603        O  0.75106835  0.96640051  0.66391845    -0.79200
O604        O  0.80994597  0.99312842  0.66998873    -0.66800
Ni605      Ni  0.79554339  0.88362500  0.64542245     1.34900
C606        C  0.83256721  0.99212171  0.66609239     0.84300
O607        O  0.74743890  0.90670844  0.63723198    -0.79800
O608        O  0.77172195  0.88314323  0.63138006    -0.90000
C609        C  0.72677293  0.94544866  0.65927537     0.83900
O610        O  0.76141327  0.85397598  0.65403287    -0.68200
O611        O  0.79567476  0.96389180  0.69233443    -0.87500
C612        C  0.73866602  0.85301865  0.65893065     0.84700
C613        C  0.75377332  0.89255435  0.62912224     1.06300
H614        H  0.75859100  0.91208757  0.67714845     0.38100
O615        O  0.77189108  0.92819624  0.67163479    -1.10200
O616        O  0.83322055  0.96808597  0.66544716    -0.66800
Ni617      Ni  0.80817191  0.92737720  0.67026334     1.26300
O618        O  0.73481905  0.87542821  0.65944150    -0.67100
O619        O  0.81984324  0.93919518  0.68768475    -0.79400
C620        C  0.84300928  0.90165458  0.66365105     0.84100
O621        O  0.84345907  0.92469778  0.66803867    -0.66500
Ni622      Ni  0.77355463  0.96362431  0.67781399     1.27400
Ni623      Ni  0.75902296  0.91715883  0.65453171     1.26100
H624        H  0.80871748  0.93401406  0.64769316     0.38600
O625        O  0.76182214  0.58941150  0.99286218    -0.81300
O626        O  0.89728909  0.68247491  0.98841314    -0.66000
O627        O  0.82123300  0.61060688  0.98604555    -1.12600
C628        C  0.84346744  0.59762223  0.02830521     1.05600
O629        O  0.91557794  0.65514884  0.99548938    -0.79200
O630        O  0.88342057  0.59755227  0.00349141    -0.66800
Ni631      Ni  0.78739960  0.60949540  0.97865216     1.34900
C632        C  0.85951527  0.57473318  0.99964067     0.84300
O633        O  0.85822649  0.65685367  0.96946476    -0.79800
O634        O  0.81000341  0.62894284  0.96367656    -0.90000
C635        C  0.91958057  0.67938605  0.99072027     0.83900
O636        O  0.79378488  0.64621307  0.98545829    -0.68200
O637        O  0.87060925  0.61604338  0.02532667    -0.87500
C638        C  0.81585211  0.66907518  0.99038542     0.84700
C639        C  0.83746180  0.64744110  0.96122395     1.06300
H640        H  0.85525631  0.65009268  0.00948717     0.38100
O641        O  0.85760228  0.63625836  0.00413147    -1.10200
O642        O  0.83489429  0.57419485  0.99871609    -0.66800
Ni643      Ni  0.82001127  0.59991736  0.00343399     1.26300
O644        O  0.84171253  0.67212268  0.99159657    -0.67100
O645        O  0.82121269  0.59001204  0.02090167    -0.79400
C646        C  0.75858827  0.56598564  0.99811391     0.84100
O647        O  0.78118415  0.56485871  0.00191843    -0.66500
Ni648      Ni  0.89164324  0.63541060  0.01017126     1.27400
Ni649      Ni  0.85844122  0.64736498  0.98689398     1.26100
H650        H  0.82471683  0.59716222  0.98095434     0.38600
O651        O  0.88063588  0.81976015  0.82116108    -0.81300
O652        O  0.92028500  0.72540247  0.82278582    -0.66000
O653        O  0.91686896  0.79655585  0.82751493    -1.12600
C654        C  0.95568985  0.81783218  0.78557009     1.05600
O655        O  0.96605659  0.75209020  0.81512398    -0.79200
O656        O  0.99341975  0.81138273  0.80933095    -0.66800
Ni657      Ni  0.88293659  0.79600735  0.83452249     1.34900
C658        C  0.99322486  0.83342742  0.81453136     0.84300
O659        O  0.90609882  0.74800006  0.84261619    -0.79800
O660        O  0.88296004  0.77280052  0.84865201    -0.90000
C661        C  0.94517288  0.72790234  0.81982545     0.83900
O662        O  0.85316342  0.76123428  0.82602989    -0.68200
O663        O  0.96234348  0.79758923  0.78736133    -0.87500
C664        C  0.85241886  0.73852899  0.82112007     0.84700
C665        C  0.89258633  0.75495453  0.85083290     1.06300
H666        H  0.91187794  0.76169448  0.80286241     0.38100
O667        O  0.92831507  0.77416463  0.80844842    -1.10200
O668        O  0.96942011  0.83422006  0.81626471    -0.66800
Ni669      Ni  0.92874927  0.81096990  0.81066245     1.26300
O670        O  0.87530300  0.73554550  0.82032989    -0.67100
O671        O  0.94201692  0.82491361  0.79368845    -0.79400
C672        C  0.90225898  0.84448721  0.81731430     0.84100
O673        O  0.92645784  0.84622876  0.81372464    -0.66500
Ni674      Ni  0.96280596  0.77513355  0.80160968     1.27400
Ni675      Ni  0.91695561  0.76013481  0.82541759     1.26100
H676        H  0.93319352  0.80894070  0.83316442     0.38600
O677        O  0.85115317  0.31417647  0.98934355    -0.81300
O678        O  0.80902135  0.17856354  0.98941412    -0.66000
O679        O  0.81247499  0.25311688  0.98451972    -1.12600
C680        C  0.77645895  0.23707438  0.02661632     1.05600
O681        O  0.76276110  0.15955098  0.99627615    -0.79200
O682        O  0.73709793  0.19293142  0.00136223    -0.66800
Ni683      Ni  0.84528978  0.28581406  0.97624028     1.34900
C684        C  0.73841168  0.21694632  0.99786568     0.84300
O685        O  0.82234104  0.21395152  0.96944207    -0.79800
O686        O  0.84215890  0.26077484  0.96215420    -0.90000
C687        C  0.78360625  0.15603360  0.99185645     0.83900
O688        O  0.87594197  0.28134877  0.98381649    -0.68200
O689        O  0.76586306  0.20947837  0.02392009    -0.87500
C690        C  0.87685784  0.26061062  0.98972776     0.84700
C691        C  0.83366630  0.23317933  0.96064125     1.06300
H692        H  0.81757013  0.22237801  0.00917834     0.38100
O693        O  0.80163872  0.21952213  0.00358083    -1.10200
O694        O  0.76269592  0.24184611  0.99744301    -0.66800
Ni695      Ni  0.80369015  0.25709513  0.00181240     1.26300
O696        O  0.85394910  0.23482128  0.99154136    -0.67100
O697        O  0.79328328  0.25860314  0.01921191    -0.79400
C698        C  0.83118825  0.31770016  0.99465718     0.84100
O699        O  0.80791535  0.29556955  0.99926795    -0.66500
Ni700      Ni  0.76576416  0.18617339  0.00977502     1.27400
Ni701      Ni  0.81225919  0.21646154  0.98661803     1.26100
H702        H  0.79516947  0.24845676  0.97944925     0.38600
O703        O  0.97632883  0.18731563  0.82422074    -0.81300
O704        O  0.84130018  0.14645872  0.82495361    -0.66000
O705        O  0.91566105  0.14952671  0.82956590    -1.12600
C706        C  0.89889561  0.11347540  0.78719518     1.05600
O707        O  0.82117819  0.10077140  0.81705822    -0.79200
O708        O  0.85397628  0.07407887  0.81146488    -0.66800
Ni709      Ni  0.94885039  0.18291608  0.83743362     1.34900
C710        C  0.87720233  0.07470942  0.81571550     0.84300
O711        O  0.87701184  0.15921746  0.84479705    -0.79800
O712        O  0.92455002  0.18135173  0.85155282    -0.90000
C713        C  0.81841325  0.12170751  0.82198740     0.83900
O714        O  0.94451636  0.21324925  0.82952251    -0.68200
O715        O  0.87151315  0.10471235  0.78947762    -0.87500
C716        C  0.92294658  0.21398375  0.82429895     0.84700
C717        C  0.89685155  0.17204368  0.85333598     1.06300
H718        H  0.88561796  0.15544777  0.80505043     0.38100
O719        O  0.88199128  0.13901359  0.81047061    -1.10200
O720        O  0.90219421  0.09872515  0.81695154    -0.66800
Ni721      Ni  0.91900386  0.13979423  0.81235586     1.26300
O722        O  0.89699860  0.19104468  0.82293932    -0.67100
O723        O  0.92021080  0.12856067  0.79501715    -0.79400
C724        C  0.97953474  0.16673560  0.81930327     0.84100
O725        O  0.95707222  0.14298239  0.81509209    -0.66500
Ni726      Ni  0.84820382  0.10413286  0.80366177     1.27400
Ni727      Ni  0.87906153  0.14932776  0.82755565     1.26100
H728        H  0.91125508  0.13254672  0.83478475     0.38600
O729        O  0.48540488  0.22124969  0.99302568    -0.81300
O730        O  0.39263824  0.26366179  0.99058687    -0.66000
O731        O  0.46355393  0.25921803  0.98705434    -1.12600
C732        C  0.48006683  0.29475141  0.02954847     1.05600
O733        O  0.42066283  0.30947730  0.99803298    -0.79200
O734        O  0.47880263  0.33508161  0.00543588    -0.66800
Ni735      Ni  0.46343340  0.22590422  0.97944852     1.34900
C736        C  0.50125959  0.33407539  0.00128802     0.84300
O737        O  0.41632765  0.24994913  0.97102666    -0.79800
O738        O  0.44189688  0.22771050  0.96501026    -0.90000
C739        C  0.39606711  0.28908084  0.99336010     0.83900
O740        O  0.42783710  0.19590912  0.98711201    -0.68200
O741        O  0.46144311  0.30326755  0.02710893    -0.87500
C742        C  0.40525934  0.19507616  0.99214258     0.84700
C743        C  0.42404103  0.23724781  0.96272259     1.06300
H744        H  0.42589359  0.25362571  0.01102699     0.38100
O745        O  0.43945580  0.26999636  0.00567888    -1.10200
O746        O  0.50117212  0.30976450  0.99983522    -0.66800
Ni747      Ni  0.47543562  0.26882248  0.00438740     1.26300
O748        O  0.40216127  0.21789311  0.99312947    -0.67100
O749        O  0.48666740  0.27995408  0.02179968    -0.79400
C750        C  0.50895130  0.24181548  0.99826302     0.84100
O751        O  0.51020820  0.26548057  0.00229790    -0.66500
Ni752      Ni  0.44120050  0.30505065  0.01228180     1.27400
Ni753      Ni  0.42715658  0.25974051  0.98846576     1.26100
H754        H  0.47685022  0.27620004  0.98192521     0.38600
O755        O  0.24907370  0.09387047  0.82372911    -0.81300
O756        O  0.34348235  0.22982070  0.82349317    -0.66000
O757        O  0.27223077  0.15458789  0.82893044    -1.12600
C758        C  0.25097836  0.16894703  0.78668443     1.05600
O759        O  0.31532812  0.24727602  0.81643997    -0.79200
O760        O  0.25630717  0.21411854  0.81073623    -0.66800
Ni761      Ni  0.27268462  0.12198963  0.83677065     1.34900
C762        C  0.23424630  0.19113597  0.81557906     0.84300
O763        O  0.32179187  0.19434906  0.84369586    -0.79800
O764        O  0.29580520  0.14704985  0.85068666    -0.90000
C765        C  0.34005238  0.25177463  0.82088357     0.83900
O766        O  0.30728520  0.12667595  0.82855009    -0.68200
O767        O  0.26988539  0.19655308  0.78869976    -0.87500
C768        C  0.32910885  0.14767887  0.82268050     0.84700
C769        C  0.31434306  0.17487388  0.85238468     1.06300
H770        H  0.30679688  0.18392089  0.80400416     0.38100
O771        O  0.29423501  0.18748457  0.80962312    -1.10200
O772        O  0.23369159  0.16658155  0.81693152    -0.66800
Ni773      Ni  0.25799809  0.15030253  0.81191274     1.26300
O774        O  0.33240880  0.17363310  0.82134151    -0.67100
O775        O  0.24459104  0.14819840  0.79472768    -0.79400
C776        C  0.22483509  0.09002000  0.81906585     0.84100
O777        O  0.22312729  0.11209176  0.81500626    -0.66500
Ni778      Ni  0.29240910  0.22044635  0.80288713     1.27400
Ni779      Ni  0.30880451  0.19141721  0.82651369     1.26100
H780        H  0.25991770  0.15904260  0.83430820     0.38600
O781        O  0.63260393  0.57577094  0.65376885    -0.81300
O782        O  0.58770479  0.44201506  0.65186467    -0.66000
O783        O  0.59166203  0.51652706  0.64684266    -1.12600
C784        C  0.55777642  0.50340178  0.68927581     1.05600
O785        O  0.54297594  0.42254630  0.66069876    -0.79200
O786        O  0.51736647  0.45545960  0.66440723    -0.66800
Ni787      Ni  0.62574922  0.54959229  0.63954918     1.34900
C788        C  0.51732209  0.47789839  0.65974197     0.84300
O789        O  0.60350669  0.47883975  0.63172533    -0.79800
O790        O  0.62120876  0.52601639  0.62482426    -0.90000
C791        C  0.56377432  0.41956290  0.65587356     0.83900
O792        O  0.65643412  0.54241503  0.64546979    -0.68200
O793        O  0.54632684  0.47540612  0.68719201    -0.87500
C794        C  0.65604699  0.52058170  0.65103668     0.84700
C795        C  0.61542667  0.49916770  0.62323987     1.06300
H796        H  0.59695351  0.48701263  0.67147203     0.38100
O797        O  0.58049978  0.48324198  0.66600588    -1.10200
O798        O  0.54048408  0.50397909  0.65933751    -0.66800
Ni799      Ni  0.58220445  0.52050535  0.66389985     1.26300
O800        O  0.63195954  0.49709778  0.65415426    -0.67100
O801        O  0.57309842  0.52335782  0.68112022    -0.79400
C802        C  0.61317275  0.58083281  0.65866509     0.84100
O803        O  0.58726251  0.55923627  0.66124149    -0.66500
Ni804      Ni  0.54612717  0.45062563  0.67345703     1.27400
Ni805      Ni  0.59108870  0.47989990  0.64893908     1.26100
H806        H  0.57488426  0.51244231  0.64152685     0.38600
O807        O  0.58129744  0.63597527  0.83242043    -0.81300
O808        O  0.44686755  0.59549381  0.83800466    -0.66000
O809        O  0.52203574  0.59902812  0.84058290    -1.12600
C810        C  0.50229763  0.56815319  0.79733440     1.05600
O811        O  0.42732815  0.55167871  0.82853557    -0.79200
O812        O  0.45694110  0.52569724  0.82022185    -0.66800
Ni813      Ni  0.55664139  0.63438670  0.84645363     1.34900
C814        C  0.47724199  0.52360014  0.82593828     0.84300
O815        O  0.48577678  0.60921803  0.85722159    -0.79800
O816        O  0.53534857  0.63554593  0.86111921    -0.90000
C817        C  0.42424560  0.57201411  0.83374145     0.83900
O818        O  0.55045288  0.66391697  0.83841481    -0.68200
O819        O  0.47537315  0.56153926  0.79935250    -0.87500
C820        C  0.52654134  0.66337938  0.83532724     0.84700
C821        C  0.50819648  0.62578071  0.86432227     1.06300
H822        H  0.49169089  0.60692820  0.81732679     0.38100
O823        O  0.48681693  0.58939578  0.82224929    -1.10200
O824        O  0.50315380  0.54604670  0.82818879    -0.66800
Ni825      Ni  0.52260014  0.58789052  0.82338533     1.26300
O826        O  0.50117099  0.63960855  0.83542304    -0.67100
O827        O  0.52223027  0.57732454  0.80595805    -0.79400
C828        C  0.58351230  0.61462974  0.82759421     0.84100
O829        O  0.56019840  0.58962662  0.82519713    -0.66500
Ni830      Ni  0.45261718  0.55771995  0.81427871     1.27400
Ni831      Ni  0.48505047  0.59848110  0.83970857     1.26100
H832        H  0.51920344  0.58287314  0.84604470     0.38600
O833        O  0.43468723  0.98225722  0.82906826    -0.81300
O834        O  0.47958397  0.89289913  0.83475333    -0.66000
O835        O  0.47372348  0.96331424  0.83779798    -1.12600
C836        C  0.50954851  0.97897761  0.79543462     1.05600
O837        O  0.52483036  0.91919892  0.82669536    -0.79200
O838        O  0.55031611  0.97695734  0.82060988    -0.66800
Ni839      Ni  0.43762736  0.96089599  0.84336928     1.34900
C840        C  0.55027044  0.99929550  0.82550944     0.84300
O841        O  0.46233791  0.91547717  0.85387661    -0.79800
O842        O  0.43751655  0.93973299  0.85818629    -0.90000
C843        C  0.50381952  0.89478930  0.83111688     0.83900
O844        O  0.40907499  0.92387932  0.83558189    -0.68200
O845        O  0.51960806  0.96165959  0.79799548    -0.87500
C846        C  0.41081389  0.90167363  0.83162991     0.84700
C847        C  0.44638612  0.92164284  0.86112455     1.06300
H848        H  0.47057321  0.92674999  0.81411835     0.38100
O849        O  0.48688664  0.94002066  0.81960032    -1.10200
O850        O  0.52695368  0.00157870  0.82618374    -0.66800
Ni851      Ni  0.48565341  0.97606603  0.82079776     1.26300
O852        O  0.43520814  0.90166477  0.83118501    -0.67100
O853        O  0.49672424  0.98695349  0.80354568    -0.79400
C854        C  0.45534740  0.00669363  0.82446052     0.84100
O855        O  0.48116647  0.01038858  0.82254071    -0.66500
Ni856      Ni  0.52110075  0.94080521  0.81274903     1.27400
Ni857      Ni  0.47544543  0.92743264  0.83670148     1.26100
H858        H  0.48938121  0.97687340  0.84347849     0.38600
O859        O  0.48581212  0.08602577  0.64973247    -0.81300
O860        O  0.62024844  0.17781708  0.64771368    -0.66000
O861        O  0.54512811  0.10616117  0.64258879    -1.12600
C862        C  0.56016908  0.08677970  0.68510961     1.05600
O863        O  0.63854144  0.15115614  0.65557179    -0.79200
O864        O  0.60642119  0.09306642  0.66064416    -0.66800
Ni865      Ni  0.51182372  0.10714198  0.63572436     1.34900
C866        C  0.58437552  0.07059950  0.65551036     0.84300
O867        O  0.58292355  0.15631680  0.62760947    -0.79800
O868        O  0.53499863  0.12808927  0.62117968    -0.90000
C869        C  0.64236594  0.17587512  0.65156272     0.83900
O870        O  0.51876299  0.14423158  0.64270046    -0.68200
O871        O  0.58794148  0.10486576  0.68307089    -0.87500
C872        C  0.54120447  0.16608153  0.64799876     0.84700
C873        C  0.56211698  0.14869488  0.61939849     1.06300
H874        H  0.57511114  0.14111199  0.66722536     0.38100
O875        O  0.57894553  0.12859240  0.66167605    -1.10200
O876        O  0.55851271  0.06764195  0.65455148    -0.66800
Ni877      Ni  0.54185790  0.09229901  0.65956968     1.26300
O878        O  0.56537088  0.16635662  0.65016078    -0.67100
O879        O  0.53989196  0.08005229  0.67679870    -0.79400
C880        C  0.48131982  0.06149225  0.65436793     0.84100
O881        O  0.50320802  0.05789374  0.65684593    -0.66500
Ni882      Ni  0.61191634  0.12792905  0.66896513     1.27400
Ni883      Ni  0.58207106  0.14272601  0.64470630     1.26100
H884        H  0.54882677  0.09351903  0.63705720     0.38600
O885        O  0.08978838  0.49105567  0.83114711    -0.81300
O886        O  0.18034033  0.62478050  0.83354606    -0.66000
O887        O  0.10875603  0.54987982  0.83829748    -1.12600
C888        C  0.09014240  0.56532049  0.79573250     1.05600
O889        O  0.15400236  0.64346814  0.82576310    -0.79200
O890        O  0.09585128  0.61106202  0.82091520    -0.66800
Ni891      Ni  0.10987871  0.51683805  0.84533234     1.34900
C892        C  0.07315414  0.58855103  0.82559357     0.84300
O893        O  0.15864808  0.58772461  0.85358737    -0.79800
O894        O  0.12964231  0.54002711  0.86006224    -0.90000
C895        C  0.17871101  0.64695523  0.82960537     0.83900
O896        O  0.14764340  0.52429797  0.83894524    -0.68200
O897        O  0.10716851  0.59311498  0.79819812    -0.87500
C898        C  0.16933805  0.54669052  0.83360496     0.84700
C899        C  0.15037307  0.56708043  0.86188400     1.06300
H900        H  0.14424166  0.58046475  0.81383252     0.38100
O901        O  0.13145031  0.58390498  0.81936695    -1.10200
O902        O  0.07010783  0.56256963  0.82600801    -0.66800
Ni903      Ni  0.09539814  0.54649521  0.82116228     1.26300
O904        O  0.16895594  0.57030105  0.83099763    -0.67100
O905        O  0.08385005  0.54464053  0.80377075    -0.79400
C906        C  0.06481883  0.48591922  0.82675914     0.84100
O907        O  0.06121288  0.50749909  0.82363232    -0.66500
Ni908      Ni  0.13044495  0.61692323  0.81234668     1.27400
Ni909      Ni  0.14524951  0.58685158  0.83640540     1.26100
H910        H  0.09592125  0.55355149  0.84370292     0.38600
O911        O  0.97710531  0.43146045  0.65133911    -0.81300
O912        O  0.88588118  0.47244514  0.64826821    -0.66000
O913        O  0.95787820  0.47051524  0.64364802    -1.12600
C914        C  0.97869756  0.50908744  0.68544750     1.05600
O915        O  0.91106606  0.51844060  0.65600042    -0.79200
O916        O  0.97017830  0.54566036  0.65900931    -0.66800
Ni917      Ni  0.95681170  0.43579845  0.63705627     1.34900
C918        C  0.99330575  0.54597926  0.65494651     0.84300
O919        O  0.90721945  0.45549271  0.62862510    -0.79800
O920        O  0.93660208  0.43749523  0.62227906    -0.90000
C921        C  0.88697592  0.49647102  0.65172158     0.83900
O922        O  0.91948235  0.40538161  0.64387521    -0.68200
O923        O  0.96279107  0.52066694  0.68267223    -0.87500
C924        C  0.89828917  0.40608116  0.64956001     0.84700
C925        C  0.91533250  0.44265723  0.62047569     1.06300
H926        H  0.92296508  0.46736846  0.66820463     0.38100
O927        O  0.93557386  0.48311568  0.66240313    -1.10200
O928        O  0.99693759  0.52345267  0.65553199    -0.66800
Ni929      Ni  0.97153811  0.48194124  0.66063768     1.26300
O930        O  0.89832002  0.43016532  0.65169099    -0.67100
O931        O  0.98319555  0.49267790  0.67783291    -0.79400
C932        C  0.00199783  0.45183674  0.65572061     0.84100
O933        O  0.00576883  0.47744821  0.65835879    -0.66500
Ni934      Ni  0.93718203  0.51809178  0.66886308     1.27400
Ni935      Ni  0.92120834  0.47021015  0.64555705     1.26100
H936        H  0.97051381  0.48684215  0.63808105     0.38600
C937        C  0.07728925  0.55707565  0.78280027    -0.03800
C938        C  0.08114161  0.57952541  0.77426653    -0.09600
C939        C  0.06938852  0.57215993  0.76205125    -0.17200
C940        C  0.05363028  0.54228245  0.75811181     0.24900
C941        C  0.04969673  0.51972338  0.76647805    -0.18900
C942        C  0.06139463  0.52703573  0.77875588    -0.07800
C943        C  0.04113441  0.53499245  0.74555556    -0.14200
C944        C  0.03059220  0.53003113  0.73505424    -0.14000
C945        C  0.01778458  0.52491275  0.72257065     0.24800
C946        C  0.01911639  0.50429418  0.71442995    -0.19400
C947        C  0.00660306  0.49929922  0.70233247    -0.07800
C948        C  0.99245424  0.51482102  0.69820481    -0.03900
C949        C  0.99126161  0.53553421  0.70647143    -0.09200
C950        C  0.00389140  0.54055766  0.71854821    -0.16900
H951        H  0.09316424  0.60287494  0.77702637     0.11300
H952        H  0.07251926  0.58981190  0.75568468     0.10600
H953        H  0.03750705  0.49649234  0.76353071     0.10500
H954        H  0.05809005  0.50921766  0.78504663     0.11000
H955        H  0.02978418  0.49203047  0.71743712     0.11100
H956        H  0.00783519  0.48311182  0.69625392     0.11100
H957        H  0.98060853  0.54790340  0.70361525     0.11200
H958        H  0.00275637  0.55660778  0.72476195     0.10000
C959        C  0.67310938  0.20207920  0.65130830    -0.03800
C960        C  0.67846422  0.23093719  0.64868748    -0.09600
C961        C  0.70750472  0.25570018  0.64947566    -0.17200
C962        C  0.73143190  0.25185387  0.65285671     0.24900
C963        C  0.72634180  0.22319598  0.65524436    -0.18900
C964        C  0.69745081  0.19851135  0.65448935    -0.07800
C965        C  0.76121017  0.27720288  0.65402191    -0.14200
C966        C  0.78621942  0.29836801  0.65491867    -0.14000
C967        C  0.81561843  0.32449352  0.65537430     0.24800
C968        C  0.84017412  0.32358885  0.65042553    -0.19400
C969        C  0.86788335  0.34995280  0.64931381    -0.07800
C970        C  0.87125611  0.37755157  0.65309534    -0.03900
C971        C  0.84685827  0.37784519  0.65878387    -0.09200
C972        C  0.81924562  0.35150719  0.65987476    -0.16900
H973        H  0.66019535  0.23442795  0.64629091     0.11300
H974        H  0.71124325  0.27784290  0.64759018     0.10600
H975        H  0.74467755  0.21994527  0.65783136     0.10500
H976        H  0.69415969  0.17663097  0.65657281     0.11000
H977        H  0.83760813  0.30274011  0.64694640     0.11100
H978        H  0.88616835  0.34890765  0.64490516     0.11100
H979        H  0.84862659  0.39863827  0.66183045     0.11200
H980        H  0.80040704  0.35243891  0.66375398     0.10000
C981        C  0.51256457  0.99003690  0.78230110    -0.03800
C982        C  0.52209428  0.97822769  0.77256128    -0.09600
C983        C  0.52466278  0.98840966  0.76015910    -0.17200
C984        C  0.51783213  0.01056512  0.75729616     0.24900
C985        C  0.50810013  0.02229720  0.76687969    -0.18900
C986        C  0.50540066  0.01207598  0.77929213    -0.07800
C987        C  0.52197933  0.02205829  0.74463141    -0.14200
C988        C  0.52702258  0.03249851  0.73414112    -0.14000
C989        C  0.53500852  0.04603948  0.72182653     0.24800
C990        C  0.56481479  0.06729771  0.71923445    -0.19400
C991        C  0.57291591  0.08058846  0.70733287    -0.07800
C992        C  0.55127522  0.07283615  0.69779450    -0.03900
C993        C  0.52130006  0.05141691  0.70049656    -0.09200
C994        C  0.51325605  0.03811351  0.71243683    -0.16900
H995        H  0.52752471  0.96106239  0.77450408     0.11300
H996        H  0.53223897  0.97917977  0.75282057     0.10600
H997        H  0.50283679  0.03952631  0.76478079     0.10500
H998        H  0.49792565  0.02160216  0.78653664     0.11000
H999        H  0.58184975  0.07360073  0.72642272     0.11100
H1000       H  0.59618425  0.09693185  0.70561878     0.11100
H1001       H  0.50408101  0.04483571  0.69338299     0.11200
H1002       H  0.49010450  0.02164383  0.71433490     0.10000
C1003       C  0.20541101  0.67724174  0.82952084    -0.03800
C1004       C  0.23401474  0.68152836  0.83175219    -0.09600
C1005       C  0.25931326  0.71007104  0.83080078    -0.17200
C1006       C  0.25625874  0.73455595  0.82764238     0.24900
C1007       C  0.22789277  0.73052841  0.82551954    -0.18900
C1008       C  0.20262329  0.70207008  0.82642721    -0.07800
C1009       C  0.28217485  0.76387784  0.82663053    -0.14200
C1010       C  0.30393744  0.78849964  0.82603817    -0.14000
C1011       C  0.33044455  0.81755109  0.82595538     0.24800
C1012       C  0.32874402  0.84308303  0.82863222    -0.19400
C1013       C  0.35489247  0.87098071  0.82974950    -0.07800
C1014       C  0.38305481  0.87358829  0.82822737    -0.03900
C1015       C  0.38435273  0.84788975  0.82499958    -0.09200
C1016       C  0.35822778  0.82008948  0.82391492    -0.16900
H1017       H  0.23687065  0.66280009  0.83401804     0.11300
H1018       H  0.28123872  0.71301863  0.83245684     0.10600
H1019       H  0.22531539  0.74935806  0.82309229     0.10500
H1020       H  0.18092082  0.69949783  0.82460012     0.11000
H1021       H  0.30728041  0.84128800  0.83024437     0.11100
H1022       H  0.35307957  0.89022513  0.83230879     0.11100
H1023       H  0.40560438  0.84897104  0.82382712     0.11200
H1024       H  0.35976218  0.80043120  0.82186494     0.10000
C1025       C  0.39386497  0.56769347  0.83477102    -0.03800
C1026       C  0.38900195  0.58952115  0.84035400    -0.09600
C1027       C  0.36037994  0.58595219  0.84031294    -0.17200
C1028       C  0.33643875  0.56060166  0.83468883     0.24900
C1029       C  0.34100984  0.53857331  0.82936526    -0.18900
C1030       C  0.36944479  0.54203484  0.82941175    -0.07800
C1031       C  0.30731622  0.55740493  0.83392012    -0.14200
C1032       C  0.28277011  0.55420475  0.83280507    -0.14000
C1033       C  0.25369234  0.55092927  0.83152367     0.24800
C1034       C  0.22800358  0.52397738  0.83473079    -0.19400
C1035       C  0.20000990  0.52178231  0.83459395    -0.07800
C1036       C  0.19742933  0.54658377  0.83123941    -0.03900
C1037       C  0.22327627  0.57307176  0.82738801    -0.09200
C1038       C  0.25118202  0.57521714  0.82757765    -0.16900
H1039       H  0.40734618  0.60953004  0.84452232     0.11300
H1040       H  0.35703135  0.60315435  0.84446461     0.10600
H1041       H  0.32266036  0.51890371  0.82498079     0.10500
H1042       H  0.37237234  0.52482644  0.82499463     0.11000
H1043       H  0.22972466  0.50498456  0.83774124     0.11100
H1044       H  0.18064136  0.50113398  0.83764789     0.11100
H1045       H  0.22223376  0.59269691  0.82481875     0.11200
H1046       H  0.27092102  0.59614959  0.82503713     0.10000
C1047       C  0.50820000  0.86869747  0.83206112    -0.03800
C1048       C  0.53624984  0.87201130  0.82923047    -0.09600
C1049       C  0.54019524  0.84728824  0.82917727    -0.17200
C1050       C  0.51621309  0.81879224  0.83191583     0.24900
C1051       C  0.48826602  0.81523671  0.83490442    -0.18900
C1052       C  0.48426720  0.84001746  0.83499996    -0.07800
C1053       C  0.52028346  0.79325866  0.83144837    -0.14200
C1054       C  0.52342025  0.77173226  0.83098661    -0.14000
C1055       C  0.52543480  0.74498831  0.83069131     0.24800
C1056       C  0.49973179  0.71737824  0.82832471    -0.19400
C1057       C  0.50065041  0.69100309  0.82907680    -0.07800
C1058       C  0.52734287  0.69170996  0.83228959    -0.03900
C1059       C  0.55345766  0.71968496  0.83410467    -0.09200
C1060       C  0.55247003  0.74615415  0.83332206    -0.16900
H1061       H  0.55515217  0.89371225  0.82689461     0.11300
H1062       H  0.56191640  0.85037434  0.82685726     0.10600
H1063       H  0.46948923  0.79327240  0.83702641     0.10500
H1064       H  0.46235104  0.83663964  0.83711584     0.11000
H1065       H  0.47870096  0.71614119  0.82625226     0.11100
H1066       H  0.48006993  0.66994887  0.82762081     0.11100
H1067       H  0.57431535  0.72106883  0.83664862     0.11200
H1068       H  0.57256549  0.76742322  0.83514258     0.10000
C1069       C  0.55922793  0.38908913  0.65468205    -0.03800
C1070       C  0.58109904  0.38433975  0.64911705    -0.09600
C1071       C  0.57701824  0.35555585  0.64854826    -0.17200
C1072       C  0.55109909  0.33125290  0.65353471     0.24900
C1073       C  0.52915824  0.33572856  0.65900403    -0.18900
C1074       C  0.53314591  0.36440787  0.65957130    -0.07800
C1075       C  0.54718430  0.30178335  0.65324732    -0.14200
C1076       C  0.54432663  0.27725592  0.65315149    -0.14000
C1077       C  0.54225351  0.24857169  0.65295798     0.24800
C1078       C  0.51632903  0.22322940  0.64854187    -0.19400
C1079       C  0.51524612  0.19580018  0.64757922    -0.07800
C1080       C  0.54016874  0.19345577  0.65100502    -0.03900
C1081       C  0.56571388  0.21890387  0.65585868    -0.09200
C1082       C  0.56672916  0.24623983  0.65679420    -0.16900
H1083       H  0.60143436  0.40285426  0.64531190     0.11300
H1084       H  0.59416691  0.35229060  0.64431081     0.10600
H1085       H  0.50905708  0.31708226  0.66291694     0.10500
H1086       H  0.51590703  0.36725680  0.66397651     0.11000
H1087       H  0.49724690  0.22482999  0.64554948     0.11100
H1088       H  0.49533381  0.17675468  0.64372165     0.11100
H1089       H  0.58539255  0.21802666  0.65850307     0.11200
H1090       H  0.58690276  0.26573810  0.66022264     0.10000
C1091       C  0.86028564  0.49978024  0.65059187    -0.03800
C1092       C  0.86296513  0.52781027  0.65287172    -0.09600
C1093       C  0.83781488  0.53097929  0.65277790    -0.17200
C1094       C  0.80949467  0.50624329  0.65043621     0.24900
C1095       C  0.80653999  0.47829258  0.64793794    -0.18900
C1096       C  0.83178825  0.47506375  0.64798520    -0.07800
C1097       C  0.78359549  0.50965638  0.65098532    -0.14200
C1098       C  0.76238113  0.51320862  0.65179863    -0.14000
C1099       C  0.73669756  0.51688939  0.65282415     0.24800
C1100       C  0.73720093  0.54184205  0.64755012    -0.19400
C1101       C  0.71144522  0.54411559  0.64770500    -0.07800
C1102       C  0.68473816  0.52134942  0.65310052    -0.03900
C1103       C  0.68493193  0.49706013  0.65888753    -0.09200
C1104       C  0.71069548  0.49487650  0.65873295    -0.16900
H1105       H  0.88451484  0.54733278  0.65490644     0.11300
H1106       H  0.84043216  0.55270545  0.65471881     0.10600
H1107       H  0.78470482  0.45893611  0.64613056     0.10500
H1108       H  0.82892832  0.45316845  0.64627174     0.11000
H1109       H  0.75722587  0.55910984  0.64298860     0.11100
H1110       H  0.71210367  0.56301600  0.64309038     0.11100
H1111       H  0.66482114  0.47906655  0.66308874     0.11200
H1112       H  0.71005083  0.47553254  0.66290131     0.10000
C1113       C  0.51067005  0.56464226  0.78431672    -0.03800
C1114       C  0.49055843  0.55795007  0.77422732    -0.09600
C1115       C  0.49792126  0.55336294  0.76204654    -0.17200
C1116       C  0.52541313  0.55534319  0.75977686     0.24900
C1117       C  0.54577697  0.56246319  0.76968481    -0.18900
C1118       C  0.53851827  0.56715733  0.78187457    -0.07800
C1119       C  0.53214324  0.54872026  0.74741750    -0.14200
C1120       C  0.53715897  0.54178648  0.73722344    -0.14000
C1121       C  0.54253910  0.53223173  0.72523192     0.24800
C1122       C  0.56025802  0.55333564  0.71614621    -0.19400
C1123       C  0.56536898  0.54396737  0.70448660    -0.07800
C1124       C  0.55281322  0.51328824  0.70175547    -0.03900
C1125       C  0.53510283  0.49225711  0.71099598    -0.09200
C1126       C  0.53001680  0.50170421  0.72264504    -0.16900
H1127       H  0.46899941  0.55597109  0.77575222     0.11300
H1128       H  0.48198242  0.54782406  0.75444042     0.10600
H1129       H  0.56708691  0.56394779  0.76802757     0.10500
H1130       H  0.55449365  0.57221367  0.78941388     0.11000
H1131       H  0.57007239  0.57702619  0.71805859     0.11100
H1132       H  0.57908069  0.56078346  0.69760492     0.11100
H1133       H  0.52504231  0.46850095  0.70921850     0.11200
H1134       H  0.51626099  0.48518679  0.72962835     0.10000
C1135       C  0.35129471  0.14056978  0.81740234    -0.03800
C1136       C  0.38209708  0.16167906  0.81718009    -0.09600
C1137       C  0.40282289  0.15252314  0.81446477    -0.17200
C1138       C  0.39283590  0.12234895  0.81175640     0.24900
C1139       C  0.36215524  0.10185597  0.81109077    -0.18900
C1140       C  0.34161491  0.11081872  0.81390308    -0.07800
C1141       C  0.41310450  0.11093911  0.81125188    -0.14200
C1142       C  0.42517746  0.09629437  0.81221082    -0.14000
C1143       C  0.43348056  0.07410703  0.81481377     0.24800
C1144       C  0.41194569  0.04672900  0.81993929    -0.19400
C1145       C  0.41916854  0.02499107  0.82295003    -0.07800
C1146       C  0.44820066  0.03010484  0.82089670    -0.03900
C1147       C  0.46980313  0.05762188  0.81563712    -0.09200
C1148       C  0.46247195  0.07951059  0.81262437    -0.16900
H1149       H  0.39016482  0.18469963  0.81986748     0.11300
H1150       H  0.42652955  0.16862667  0.81506215     0.10600
H1151       H  0.35405469  0.07848733  0.80903291     0.10500
H1152       H  0.31803061  0.09409023  0.81385559     0.11000
H1153       H  0.38946359  0.04221790  0.82171105     0.11100
H1154       H  0.40191679  0.00416312  0.82697604     0.11100
H1155       H  0.49233633  0.06228255  0.81393303     0.11200
H1156       H  0.47940421  0.10062309  0.80868068     0.10000
C1157       C  0.36395034  0.28308199  0.82357371    -0.03800
C1158       C  0.39029333  0.28990897  0.83012269    -0.09600
C1159       C  0.41195187  0.31980676  0.83282548    -0.17200
C1160       C  0.40750187  0.34308931  0.82896329     0.24900
C1161       C  0.38155778  0.33636667  0.82233199    -0.18900
C1162       C  0.36003973  0.30676322  0.81966147    -0.07800
C1163       C  0.42871487  0.37407646  0.83178572    -0.14200
C1164       C  0.44216282  0.40095993  0.83305986    -0.14000
C1165       C  0.45227491  0.43252676  0.83315591     0.24800
C1166       C  0.43081572  0.44120513  0.83318420    -0.19400
C1167       C  0.43933877  0.47112698  0.83150959    -0.07800
C1168       C  0.46958860  0.49307901  0.82978333    -0.03900
C1169       C  0.49131223  0.48456848  0.83045432    -0.09200
C1170       C  0.48264550  0.45433960  0.83204284    -0.16900
H1171       H  0.39396949  0.27220743  0.83326648     0.11300
H1172       H  0.43195782  0.32471372  0.83797516     0.10600
H1173       H  0.37781613  0.35410976  0.81927740     0.10500
H1174       H  0.34018204  0.30246927  0.81455230     0.11000
H1175       H  0.40726999  0.42462343  0.83400927     0.11100
H1176       H  0.42206047  0.47695805  0.83114856     0.11100
H1177       H  0.51471867  0.50095607  0.82908785     0.11200
H1178       H  0.49947448  0.44788766  0.83194351     0.10000
C1179       C  0.41170048  0.23314875  0.94972222    -0.03800
C1180       C  0.39057908  0.24155118  0.94667204    -0.09600
C1181       C  0.37874449  0.23707507  0.93443322    -0.17200
C1182       C  0.38788386  0.22422828  0.92508217     0.24900
C1183       C  0.40899606  0.21601939  0.92800354    -0.18900
C1184       C  0.42081154  0.22041884  0.94019996    -0.07800
C1185       C  0.37521479  0.21868290  0.91255850    -0.14200
C1186       C  0.36473593  0.21257165  0.90204722    -0.14000
C1187       C  0.35203158  0.20344767  0.88958346     0.24800
C1188       C  0.36031651  0.22441668  0.87986578    -0.19400
C1189       C  0.34819413  0.21523056  0.86773815    -0.07800
C1190       C  0.32760737  0.18487611  0.86517136    -0.03900
C1191       C  0.31948078  0.16403223  0.87503572    -0.09200
C1192       C  0.33160429  0.17326938  0.88712108    -0.16900
H1193       H  0.38302569  0.25136846  0.95375064     0.11300
H1194       H  0.36233980  0.24344686  0.93229212     0.10600
H1195       H  0.41620290  0.20600215  0.92086168     0.10500
H1196       H  0.43702404  0.21370654  0.94216394     0.11000
H1197       H  0.37618078  0.24784165  0.88165136     0.11100
H1198       H  0.35494298  0.23188574  0.86039171     0.11100
H1199       H  0.30370180  0.14051540  0.87344262     0.11200
H1200       H  0.32507268  0.15681667  0.89455038     0.10000
C1201       C  0.92886792  0.24357124  0.82011354    -0.03800
C1202       C  0.90917487  0.25372677  0.82322832    -0.09600
C1203       C  0.91834722  0.28412251  0.82198167    -0.17200
C1204       C  0.94701370  0.30435014  0.81739935     0.24900
C1205       C  0.96576646  0.29382199  0.81346534    -0.18900
C1206       C  0.95684998  0.26371365  0.81487022    -0.07800
C1207       C  0.95908750  0.33622162  0.81808848    -0.14200
C1208       C  0.97375625  0.36304932  0.81937172    -0.14000
C1209       C  0.99553661  0.39415784  0.82154452     0.24800
C1210       C  0.02052562  0.40146214  0.82903259    -0.19400
C1211       C  0.04285205  0.43128686  0.83072229    -0.07800
C1212       C  0.04055104  0.45444556  0.82498162    -0.03900
C1213       C  0.01512602  0.44703158  0.81763151    -0.09200
C1214       C  0.99279811  0.41700717  0.81587789    -0.16900
H1215       H  0.88767788  0.23866651  0.82745865     0.11300
H1216       H  0.90371282  0.29203490  0.82515439     0.10600
H1217       H  0.98800222  0.30921213  0.80995129     0.10500
H1218       H  0.97241621  0.25639796  0.81243149     0.11000
H1219       H  0.02295590  0.38402184  0.83345601     0.11100
H1220       H  0.06198166  0.43619245  0.83653036     0.11100
H1221       H  0.01273834  0.46436054  0.81309509     0.11200
H1222       H  0.97361965  0.41162264  0.81001236     0.10000
C1223       C  0.01013982  0.17130834  0.81840288    -0.03800
C1224       C  0.01489899  0.14791914  0.81478374    -0.09600
C1225       C  0.04375807  0.15199877  0.81505754    -0.17200
C1226       C  0.06817764  0.17948863  0.81890387     0.24900
C1227       C  0.06369515  0.20302922  0.82220245    -0.18900
C1228       C  0.03498016  0.19901047  0.82196483    -0.07800
C1229       C  0.09775782  0.18353314  0.81975818    -0.14200
C1230       C  0.12250777  0.18692826  0.82055662    -0.14000
C1231       C  0.15148229  0.18945552  0.82104155     0.24800
C1232       C  0.15340772  0.16406647  0.82353528    -0.19400
C1233       C  0.18081591  0.16525140  0.82257798    -0.07800
C1234       C  0.20685060  0.19187700  0.81900178    -0.03900
C1235       C  0.20504241  0.21778227  0.81719200    -0.09200
C1236       C  0.17749820  0.21654644  0.81821256    -0.16900
H1237       H  0.99628544  0.12631887  0.81203966     0.11300
H1238       H  0.04695141  0.13359404  0.81245526     0.10600
H1239       H  0.08236577  0.22441450  0.82515135     0.10500
H1240       H  0.03220857  0.21754475  0.82478493     0.11000
H1241       H  0.13349237  0.14300226  0.82576761     0.11100
H1242       H  0.18124496  0.14483518  0.82404222     0.11100
H1243       H  0.22459170  0.23863457  0.81445051     0.11200
H1244       H  0.17631756  0.23641859  0.81632457     0.10000
C1245       C  0.78797036  0.11641886  0.82463894    -0.03800
C1246       C  0.78314887  0.13376755  0.83357579    -0.09600
C1247       C  0.75408365  0.12803389  0.83604757    -0.17200
C1248       C  0.72957959  0.10516711  0.82949939     0.24900
C1249       C  0.73438119  0.08815755  0.82051555    -0.18900
C1250       C  0.76320922  0.09360606  0.81814307    -0.07800
C1251       C  0.69918504  0.09768292  0.83216749    -0.14200
C1252       C  0.67242307  0.08642864  0.83347158    -0.14000
C1253       C  0.64030351  0.06679776  0.83393177     0.24800
C1254       C  0.62900620  0.03736668  0.83797163    -0.19400
C1255       C  0.59894024  0.01595339  0.83611161    -0.07800
C1256       C  0.57945095  0.02359495  0.83026701    -0.03900
C1257       C  0.59022721  0.05368285  0.82712446    -0.09200
C1258       C  0.62064789  0.07517623  0.82884623    -0.16900
H1259       H  0.80175065  0.15140137  0.83877921     0.11300
H1260       H  0.75073336  0.14123984  0.84310450     0.10600
H1261       H  0.71569395  0.07034891  0.81540700     0.10500
H1262       H  0.76612907  0.07998912  0.81115329     0.11000
H1263       H  0.64385817  0.03048862  0.84187048     0.11100
H1264       H  0.59122379  0.99294660  0.83862155     0.11100
H1265       H  0.57574769  0.06006862  0.82247707     0.11200
H1266       H  0.62908132  0.09782744  0.82559172     0.10000
C1267       C  0.83753881  0.22310125  0.94803554    -0.03800
C1268       C  0.84227768  0.24088499  0.93731311    -0.09600
C1269       C  0.84712611  0.23199266  0.92549342    -0.17200
C1270       C  0.84748834  0.20533306  0.92422662     0.24900
C1271       C  0.84246654  0.18728956  0.93480338    -0.18900
C1272       C  0.83737902  0.19602603  0.94663295    -0.07800
C1273       C  0.85397264  0.19711339  0.91213793    -0.14200
C1274       C  0.86046285  0.19147786  0.90196666    -0.14000
C1275       C  0.86929476  0.18597809  0.88982041     0.24800
C1276       C  0.89791182  0.19014368  0.88818541    -0.19400
C1277       C  0.90688246  0.18554405  0.87633625    -0.07800
C1278       C  0.88725151  0.17655676  0.86595100    -0.03900
C1279       C  0.85844828  0.17231036  0.86771082    -0.09200
C1280       C  0.84959189  0.17707153  0.87956217    -0.16900
H1281       H  0.84234547  0.26173699  0.93806365     0.11300
H1282       H  0.85096623  0.24611136  0.91736596     0.10600
H1283       H  0.84280770  0.16665397  0.93393565     0.10500
H1284       H  0.83395184  0.18191779  0.95471644     0.11000
H1285       H  0.91336516  0.19710564  0.89606009     0.11100
H1286       H  0.92916353  0.18897225  0.87532162     0.11100
H1287       H  0.84284627  0.16560998  0.85990580     0.11200
H1288       H  0.82743917  0.17393797  0.88070700     0.10000
C1289       C  0.71032169  0.21686418  0.99520882    -0.03800
C1290       C  0.68240486  0.19174742  0.99815056    -0.09600
C1291       C  0.65655578  0.19382057  0.99823493    -0.17200
C1292       C  0.65823746  0.22092507  0.99532762     0.24900
C1293       C  0.68559021  0.24553725  0.99172735    -0.18900
C1294       C  0.71143378  0.24354505  0.99163664    -0.07800
C1295       C  0.63231773  0.22401097  0.99665417    -0.14200
C1296       C  0.61094163  0.22708131  0.99796362    -0.14000
C1297       C  0.58521532  0.23052271  0.99918548     0.24800
C1298       C  0.58873943  0.25872452  0.00156460    -0.19400
C1299       C  0.56375499  0.26228638  0.00184074    -0.07800
C1300       C  0.53498943  0.23767497  0.99962502    -0.03900
C1301       C  0.53163219  0.20927838  0.99766347    -0.09200
C1302       C  0.55656946  0.20575164  0.99747436    -0.16900
H1303       H  0.68073826  0.17096073  0.00102692     0.11300
H1304       H  0.63545653  0.17458806  0.00100019     0.10600
H1305       H  0.68714747  0.26659896  0.98941180     0.10500
H1306       H  0.73250652  0.26336918  0.98934637     0.11000
H1307       H  0.61083131  0.27806377  0.00291343     0.11100
H1308       H  0.56705126  0.28443337  0.00331100     0.11100
H1309       H  0.50976906  0.18986119  0.99599236     0.11200
H1310       H  0.55355888  0.18381109  0.99568340     0.10000
C1311       C  0.61386120  0.62029301  0.82427808    -0.03800
C1312       C  0.61830303  0.59903879  0.81781214    -0.09600
C1313       C  0.64739067  0.60538210  0.81481384    -0.17200
C1314       C  0.67229496  0.63297259  0.81827552     0.24900
C1315       C  0.66789235  0.65402617  0.82469751    -0.18900
C1316       C  0.63911191  0.64781523  0.82766541    -0.07800
C1317       C  0.70264702  0.64062329  0.81537864    -0.14200
C1318       C  0.72942677  0.65223630  0.81396747    -0.14000
C1319       C  0.76157447  0.67179748  0.81343816     0.24800
C1320       C  0.77309653  0.70119999  0.80928538    -0.19400
C1321       C  0.80335932  0.72236239  0.81091220    -0.07800
C1322       C  0.82280587  0.71448390  0.81662424    -0.03900
C1323       C  0.81168061  0.68445149  0.81997933    -0.09200
C1324       C  0.78111264  0.66324369  0.81849007    -0.16900
H1325       H  0.59938236  0.57766392  0.81504764     0.11300
H1326       H  0.65042229  0.58885172  0.80981402     0.10600
H1327       H  0.68684670  0.67543937  0.82743313     0.10500
H1328       H  0.63671581  0.66473454  0.83266449     0.11000
H1329       H  0.75833599  0.70824304  0.80543273     0.11100
H1330       H  0.81131812  0.74535566  0.80829420     0.11100
H1331       H  0.82608317  0.67791178  0.82458845     0.11200
H1332       H  0.77250951  0.64065336  0.82186110     0.10000
C1333       C  0.89844784  0.87095806  0.81689352    -0.03800
C1334       C  0.87148924  0.86845519  0.82107011    -0.09600
C1335       C  0.86794058  0.89338693  0.82134806    -0.17200
C1336       C  0.89120331  0.92128153  0.81745854     0.24900
C1337       C  0.91808031  0.92406187  0.81318255    -0.18900
C1338       C  0.92171624  0.89906114  0.81290223    -0.07800
C1339       C  0.88738388  0.94693757  0.81801833    -0.14200
C1340       C  0.88377489  0.96814695  0.81863549    -0.14000
C1341       C  0.88031421  0.99401825  0.81923028     0.24800
C1342       C  0.90326546  0.02086898  0.82426901    -0.19400
C1343       C  0.90128573  0.04672579  0.82389900    -0.07800
C1344       C  0.87626632  0.04619250  0.81844847    -0.03900
C1345       C  0.85264431  0.01875307  0.81393232    -0.09200
C1346       C  0.85471649  0.99286608  0.81429883    -0.16900
H1347       H  0.85314012  0.84723720  0.82427186     0.11300
H1348       H  0.84706906  0.89092311  0.82468779     0.10600
H1349       H  0.93628447  0.94557216  0.81015431     0.10500
H1350       H  0.94277241  0.90178206  0.80969832     0.11000
H1351       H  0.92314781  0.02205662  0.82814058     0.11100
H1352       H  0.91995327  0.06742333  0.82742850     0.11100
H1353       H  0.83324270  0.01757405  0.80955064     0.11200
H1354       H  0.83677066  0.97218825  0.81037807     0.10000
C1355       C  0.02210575  0.86057240  0.81788300    -0.03800
C1356       C  0.02232784  0.88557379  0.82326988    -0.09600
C1357       C  0.04890081  0.91312067  0.82418574    -0.17200
C1358       C  0.07573349  0.91619553  0.81979690     0.24900
C1359       C  0.07611433  0.89113252  0.81505751    -0.18900
C1360       C  0.04949743  0.86346915  0.81412609    -0.07800
C1361       C  0.10229301  0.94544987  0.81946587    -0.14200
C1362       C  0.12370567  0.97046118  0.81893296    -0.14000
C1363       C  0.14912914  0.00044908  0.81839582     0.24800
C1364       C  0.17763446  0.00556884  0.82124386    -0.19400
C1365       C  0.20224643  0.03463698  0.82117492    -0.07800
C1366       C  0.19879551  0.05915474  0.81821554    -0.03900
C1367       C  0.17012790  0.05380114  0.81514045    -0.09200
C1368       C  0.14544583  0.02460936  0.81525769    -0.16900
H1369       H  0.00174223  0.88426743  0.82625944     0.11300
H1370       H  0.04831161  0.93230369  0.82790727     0.10600
H1371       H  0.09677606  0.89320435  0.81166015     0.10500
H1372       H  0.05018697  0.84478820  0.80989611     0.11000
H1373       H  0.18080984  0.98710611  0.82366649     0.11100
H1374       H  0.22397520  0.03791265  0.82358332     0.11100
H1375       H  0.16669071  0.07217882  0.81290173     0.11200
H1376       H  0.12346021  0.02092465  0.81304133     0.10000
C1377       C  0.95098855  0.70316702  0.82230754    -0.03800
C1378       C  0.93437361  0.68086612  0.83129489    -0.09600
C1379       C  0.94143161  0.65864349  0.83393513    -0.17200
C1380       C  0.96488185  0.65826011  0.82750382     0.24900
C1381       C  0.98090855  0.67993704  0.81833142    -0.18900
C1382       C  0.97412939  0.70222153  0.81578414    -0.07800
C1383       C  0.97403585  0.63696477  0.83058655    -0.14200
C1384       C  0.98619296  0.62264380  0.83234271    -0.14000
C1385       C  0.00612562  0.61093315  0.83324334     0.24800
C1386       C  0.03581451  0.63039092  0.83679520    -0.19400
C1387       C  0.05717566  0.62188883  0.83529101    -0.07800
C1388       C  0.04922002  0.59368211  0.83023796    -0.03900
C1389       C  0.01895193  0.57322545  0.82764527    -0.09200
C1390       C  0.99749856  0.58193417  0.82904793    -0.16900
H1391       H  0.91649355  0.68106957  0.83649269     0.11300
H1392       H  0.92893548  0.64209950  0.84110409     0.10600
H1393       H  0.99909802  0.67995492  0.81328546     0.10500
H1394       H  0.98716489  0.71886928  0.80872901     0.11000
H1395       H  0.04285555  0.65287134  0.84001941     0.11100
H1396       H  0.08032930  0.63806322  0.83739652     0.11100
H1397       H  0.01230635  0.55149124  0.82362497     0.11200
H1398       H  0.97461302  0.56669187  0.82620138     0.10000
C1399       C  0.72797426  0.54001936  0.99975683    -0.03800
C1400       C  0.70293501  0.54330769  0.99791336    -0.09600
C1401       C  0.67400631  0.51841893  0.99816284    -0.17200
C1402       C  0.66962577  0.48985092  0.00020021     0.24900
C1403       C  0.69434172  0.48642425  0.00236729    -0.18900
C1404       C  0.72333989  0.51135092  0.00219980    -0.07800
C1405       C  0.63988606  0.46402195  0.99965435    -0.14200
C1406       C  0.61515958  0.44219544  0.99899354    -0.14000
C1407       C  0.58606120  0.41547818  0.99835525     0.24800
C1408       C  0.58369112  0.38795942  0.99562929    -0.19400
C1409       C  0.55580567  0.36166578  0.99585836    -0.07800
C1410       C  0.52973494  0.36241823  0.99888854    -0.03900
C1411       C  0.53221181  0.39033802  0.00117467    -0.09200
C1412       C  0.56019887  0.41667129  0.00090367    -0.16900
H1413       H  0.70571615  0.56507814  0.99604718     0.11300
H1414       H  0.65509166  0.52139971  0.99651530     0.10600
H1415       H  0.69123838  0.46441519  0.00395149     0.10500
H1416       H  0.74213820  0.50806010  0.00356710     0.11000
H1417       H  0.60351180  0.38671596  0.99363859     0.11100
H1418       H  0.55489277  0.34062562  0.99414105     0.11100
H1419       H  0.51270928  0.39175622  0.00361733     0.11200
H1420       H  0.56174583  0.43786234  0.00300963     0.10000
C1421       C  0.85945524  0.54665302  0.99685954    -0.03800
C1422       C  0.88204014  0.54206743  0.00170217    -0.09600
C1423       C  0.87933840  0.51384864  0.00091043    -0.17200
C1424       C  0.85418227  0.48991914  0.99519865     0.24900
C1425       C  0.83222319  0.49458726  0.98989900    -0.18900
C1426       C  0.83478890  0.52270035  0.99073194    -0.07800
C1427       C  0.85026863  0.46034034  0.99523072    -0.14200
C1428       C  0.84674056  0.43548438  0.99547062    -0.14000
C1429       C  0.84304186  0.40599739  0.99566885     0.24800
C1430       C  0.81780012  0.38206127  0.00127436    -0.19400
C1431       C  0.81411646  0.35336932  0.00121782    -0.07800
C1432       C  0.83569038  0.34828060  0.99554818    -0.03900
C1433       C  0.86113714  0.37260880  0.99008491    -0.09200
C1434       C  0.86473353  0.40118367  0.99014371    -0.16900
H1435       H  0.90111410  0.55988653  0.00660710     0.11300
H1436       H  0.89648098  0.51050422  0.00505437     0.10600
H1437       H  0.81269336  0.47628771  0.98542368     0.10500
H1438       H  0.81697457  0.52542766  0.98692184     0.11000
H1439       H  0.80085000  0.38551604  0.00559257     0.11100
H1440       H  0.79423607  0.33514271  0.00545543     0.11100
H1441       H  0.87813937  0.36952746  0.98558803     0.11200
H1442       H  0.88435559  0.41949740  0.98578134     0.10000
C1443       C  0.84560118  0.65871556  0.94812975    -0.03800
C1444       C  0.87386770  0.68366325  0.94546511    -0.09600
C1445       C  0.88116353  0.69486868  0.93317713    -0.17200
C1446       C  0.86043790  0.68120101  0.92337986     0.24900
C1447       C  0.83246727  0.65610375  0.92588796    -0.18900
C1448       C  0.82504930  0.64494433  0.93817531    -0.07800
C1449       C  0.86749872  0.69340647  0.91082950    -0.14200
C1450       C  0.87275682  0.70395839  0.90036857    -0.14000
C1451       C  0.87823199  0.71691855  0.88796114     0.24800
C1452       C  0.87487655  0.74161353  0.88577897    -0.19400
C1453       C  0.87954076  0.75394546  0.87370398    -0.07800
C1454       C  0.88780408  0.74182554  0.86362725    -0.03900
C1455       C  0.89135415  0.71711692  0.86593345    -0.09200
C1456       C  0.88649248  0.70470059  0.87802435    -0.16900
H1457       H  0.89018303  0.69483310  0.95290538     0.11300
H1458       H  0.90285684  0.71435833  0.93134394     0.10600
H1459       H  0.81626536  0.64533809  0.91836804     0.10500
H1460       H  0.80319787  0.62559418  0.93987893     0.11000
H1461       H  0.86852285  0.75127187  0.89340382     0.11100
H1462       H  0.87680317  0.77306949  0.87228143     0.11100
H1463       H  0.89758469  0.70720043  0.85837808     0.11200
H1464       H  0.88907540  0.68552574  0.87961046     0.10000
C1465       C  0.82981529  0.96604874  0.70736375    -0.03800
C1466       C  0.81725869  0.97537882  0.71685965    -0.09600
C1467       C  0.83457814  0.99301822  0.72696656    -0.17200
C1468       C  0.86480001  0.00170741  0.72784240     0.24900
C1469       C  0.87710849  0.99091864  0.71891432    -0.18900
C1470       C  0.85965238  0.97302671  0.70874763    -0.07800
C1471       C  0.88304528  0.02374683  0.73728557    -0.14200
C1472       C  0.89409804  0.04340375  0.74517785    -0.14000
C1473       C  0.90108407  0.06640391  0.75457547     0.24800
C1474       C  0.92063592  0.07132424  0.76464757    -0.19400
C1475       C  0.92268943  0.08977112  0.77483533    -0.07800
C1476       C  0.90484275  0.10303649  0.77509868    -0.03900
C1477       C  0.88701797  0.09968132  0.76453334    -0.09200
C1478       C  0.88525392  0.08162039  0.75435562    -0.16900
H1479       H  0.79438958  0.97044232  0.71609670     0.11300
H1480       H  0.82470123  0.00111119  0.73378661     0.10600
H1481       H  0.90048066  0.99746679  0.71946497     0.10500
H1482       H  0.87007601  0.96653474  0.70151999     0.11000
H1483       H  0.93295003  0.05962509  0.76497836     0.11100
H1484       H  0.93616218  0.09152269  0.78295753     0.11100
H1485       H  0.87287771  0.10944631  0.76453074     0.11200
H1486       H  0.87004746  0.07805482  0.74665456     0.10000
C1487       C  0.71585126  0.82370518  0.66392722    -0.03800
C1488       C  0.72527155  0.80680313  0.67076094    -0.09600
C1489       C  0.70568160  0.77644931  0.67298714    -0.17200
C1490       C  0.67642461  0.76242618  0.66833127     0.24900
C1491       C  0.66633919  0.77946552  0.66207976    -0.18900
C1492       C  0.68593981  0.81009767  0.65996292    -0.07800
C1493       C  0.65849133  0.73018983  0.66867876    -0.14200
C1494       C  0.64725061  0.70332127  0.66811545    -0.14000
C1495       C  0.63832237  0.67225960  0.66635731     0.24800
C1496       C  0.60927593  0.64915984  0.66916666    -0.19400
C1497       C  0.60097004  0.61923611  0.66686940    -0.07800
C1498       C  0.62165429  0.61214797  0.66169926    -0.03900
C1499       C  0.65085928  0.63555838  0.65913255    -0.09200
C1500       C  0.65906288  0.66526340  0.66144030    -0.16900
H1501       H  0.74831841  0.81678920  0.67380333     0.11300
H1502       H  0.71386756  0.76356727  0.67774984     0.10600
H1503       H  0.64384533  0.76881372  0.65830580     0.10500
H1504       H  0.67839467  0.82255592  0.65445515     0.11000
H1505       H  0.59300793  0.65427030  0.67299500     0.11100
H1506       H  0.57834763  0.60174253  0.66898675     0.11100
H1507       H  0.66741109  0.63099403  0.65519804     0.11200
H1508       H  0.68160474  0.68287300  0.65924060     0.10000
C1509       C  0.58994587  0.04695495  0.65084264    -0.03800
C1510       C  0.61798880  0.05537586  0.64557344    -0.09600
C1511       C  0.62675218  0.03430686  0.64366286    -0.17200
C1512       C  0.60777300  0.00444644  0.64706230     0.24900
C1513       C  0.57906022  0.99543937  0.65168707    -0.18900
C1514       C  0.57005988  0.01659775  0.65347743    -0.07800
C1515       C  0.61976338  0.98466663  0.64725697    -0.14200
C1516       C  0.63468650  0.97295527  0.64841899    -0.14000
C1517       C  0.65715373  0.96505245  0.65100725     0.24800
C1518       C  0.65377901  0.93756490  0.64719226    -0.19400
C1519       C  0.67627823  0.93086933  0.64985912    -0.07800
C1520       C  0.70243052  0.95167488  0.65633353    -0.03900
C1521       C  0.70542358  0.97913342  0.66009058    -0.09200
C1522       C  0.68305033  0.98569352  0.65745580    -0.16900
H1523       H  0.63375881  0.07863358  0.64350111     0.11300
H1524       H  0.64904831  0.04166800  0.64016030     0.10600
H1525       H  0.56424165  0.97245332  0.65447750     0.10500
H1526       H  0.54852687  0.00964498  0.65772896     0.11000
H1527       H  0.63386426  0.92138141  0.64216841     0.11100
H1528       H  0.67328980  0.90956390  0.64682090     0.11100
H1529       H  0.72512086  0.99568043  0.66512181     0.11200
H1530       H  0.68600355  0.00702843  0.66046090     0.10000
C1531       C  0.65152703  0.84037645  0.53235504    -0.03800
C1532       C  0.64001594  0.81839189  0.54184715    -0.09600
C1533       C  0.65150333  0.82523325  0.55413898    -0.17200
C1534       C  0.67464159  0.85410122  0.55714990     0.24900
C1535       C  0.68623387  0.87612876  0.54779769    -0.18900
C1536       C  0.67477725  0.86936544  0.53549629    -0.07800
C1537       C  0.68681444  0.86099715  0.56977028    -0.14200
C1538       C  0.69761010  0.86666664  0.58023212    -0.14000
C1539       C  0.71146165  0.87318494  0.59254165     0.24800
C1540       C  0.73091820  0.86296798  0.59563998    -0.19400
C1541       C  0.74477194  0.86944530  0.60747924    -0.07800
C1542       C  0.73937261  0.88627471  0.61646245    -0.03900
C1543       C  0.71967163  0.89640563  0.61327086    -0.09200
C1544       C  0.70584960  0.88990783  0.60138648    -0.16900
H1545       H  0.62212418  0.79586507  0.53979433     0.11300
H1546       H  0.64238487  0.80796797  0.56128514     0.10600
H1547       H  0.70420394  0.89853612  0.55000369     0.10500
H1548       H  0.68420184  0.88683689  0.52845087     0.11000
H1549       H  0.73543286  0.84999386  0.58888602     0.11100
H1550       H  0.75965294  0.86114524  0.60959489     0.11100
H1551       H  0.71489575  0.90931101  0.61994810     0.11200
H1552       H  0.69081967  0.89794394  0.59909823     0.10000
C1553       C  0.10195097  0.90413438  0.70607541    -0.03800
C1554       C  0.09668883  0.88503289  0.71635543    -0.09600
C1555       C  0.07905184  0.88416884  0.72649150    -0.17200
C1556       C  0.06625622  0.90226723  0.72652760     0.24900
C1557       C  0.07307557  0.92293252  0.71676040    -0.18900
C1558       C  0.09106775  0.92403006  0.70660440    -0.07800
C1559       C  0.04383681  0.89679058  0.73592188    -0.14200
C1560       C  0.02437771  0.88684628  0.74384427    -0.14000
C1561       C  0.00218778  0.86974345  0.75332149     0.24800
C1562       C  0.98741969  0.83848261  0.75273800    -0.19400
C1563       C  0.96999409  0.82131850  0.76287509    -0.07800
C1564       C  0.96681449  0.83513817  0.77374082    -0.03900
C1565       C  0.97992188  0.86645377  0.77392117    -0.09200
C1566       C  0.99773442  0.88369606  0.76378925    -0.16900
H1567       H  0.10461530  0.86933518  0.71615470     0.11300
H1568       H  0.07396749  0.86807687  0.73396336     0.10600
H1569       H  0.06323127  0.93699724  0.71664412     0.10500
H1570       H  0.09432035  0.93855820  0.69870065     0.11000
H1571       H  0.99072838  0.82738422  0.74473128     0.11100
H1572       H  0.96032880  0.79728078  0.76251782     0.11100
H1573       H  0.97832460  0.87770695  0.78227470     0.11200
H1574       H  0.00920563  0.90786686  0.76441260     0.10000
C1575       C  0.45023731  0.03768293  0.65724839    -0.03800
C1576       C  0.42684633  0.04384760  0.65641232    -0.09600
C1577       C  0.39729376  0.02138887  0.65848933    -0.17200
C1578       C  0.39047029  0.99232487  0.66139459     0.24900
C1579       C  0.41356944  0.98595785  0.66246504    -0.18900
C1580       C  0.44333631  0.00855128  0.66044659    -0.07800
C1581       C  0.35952581  0.96944247  0.66291196    -0.14200
C1582       C  0.33261088  0.95444488  0.66350760    -0.14000
C1583       C  0.30085778  0.94312317  0.66345388     0.24800
C1584       C  0.28034732  0.91432612  0.65897679    -0.19400
C1585       C  0.25015721  0.90571775  0.65734052    -0.07800
C1586       C  0.24052830  0.92609046  0.65996881    -0.03900
C1587       C  0.26104816  0.95438762  0.66491795    -0.09200
C1588       C  0.29088273  0.96274040  0.66670629    -0.16900
H1589       H  0.43131727  0.06602655  0.65404538     0.11300
H1590       H  0.37965017  0.02663742  0.65766725     0.10600
H1591       H  0.40857399  0.96354577  0.66471367     0.10500
H1592       H  0.46084257  0.00311331  0.66115111     0.11000
H1593       H  0.28785877  0.89904249  0.65629408     0.11100
H1594       H  0.23481731  0.88396465  0.65332218     0.11100
H1595       H  0.25418046  0.97049733  0.66696912     0.11200
H1596       H  0.30650600  0.98510594  0.67009449     0.10000
C1597       C  0.01717807  0.57488576  0.64995933    -0.03800
C1598       C  0.00917202  0.59270220  0.64294478    -0.09600
C1599       C  0.02946502  0.62315571  0.64126378    -0.17200
C1600       C  0.05801511  0.63633576  0.64663464     0.24900
C1601       C  0.06695168  0.61828824  0.65282412    -0.18900
C1602       C  0.04667296  0.58759096  0.65439525    -0.07800
C1603       C  0.07594554  0.66858156  0.64732989    -0.14200
C1604       C  0.08700421  0.69526193  0.64884632    -0.14000
C1605       C  0.09558199  0.72594994  0.65152287     0.24800
C1606       C  0.12286701  0.74992235  0.64731359    -0.19400
C1607       C  0.13018879  0.77952422  0.64974890    -0.07800
C1608       C  0.11019617  0.78544675  0.65637929    -0.03900
C1609       C  0.08306162  0.76113898  0.66068377    -0.09200
C1610       C  0.07587386  0.73174554  0.65827777    -0.16900
H1611       H  0.98652437  0.58344280  0.63948304     0.11300
H1612       H  0.02218066  0.63678867  0.63649514     0.10600
H1613       H  0.08890578  0.62822707  0.65710469     0.10500
H1614       H  0.05321256  0.57443989  0.65999988     0.11000
H1615       H  0.13834808  0.74575776  0.64208256     0.11100
H1616       H  0.15126798  0.79771009  0.64633493     0.11100
H1617       H  0.06721364  0.76478551  0.66589657     0.11200
H1618       H  0.05473510  0.71346714  0.66161985     0.10000
C1619       C  0.04480263  0.87688570  0.66167955    -0.03800
C1620       C  0.01672100  0.85261212  0.66508593    -0.09600
C1621       C  0.99104980  0.85494345  0.66429219    -0.17200
C1622       C  0.99310548  0.88144930  0.66003472     0.24900
C1623       C  0.02057857  0.90490299  0.65583700    -0.18900
C1624       C  0.04622035  0.90264993  0.65661979    -0.07800
C1625       C  0.96766184  0.88550839  0.66085530    -0.14200
C1626       C  0.94662641  0.88921922  0.66202019    -0.14000
C1627       C  0.92069865  0.89236515  0.66332188     0.24800
C1628       C  0.92353477  0.91984695  0.66674316    -0.19400
C1629       C  0.89815246  0.92281064  0.66738474    -0.07800
C1630       C  0.86969170  0.89830482  0.66454281    -0.03900
C1631       C  0.86712981  0.87064798  0.66148174    -0.09200
C1632       C  0.89238903  0.86774089  0.66088938    -0.16900
H1633       H  0.01480747  0.83248768  0.66901518     0.11300
H1634       H  0.96984251  0.83655863  0.66750390     0.10600
H1635       H  0.02243608  0.92544762  0.65244819     0.10500
H1636       H  0.06740439  0.92171907  0.65383066     0.11000
H1637       H  0.94536823  0.93907715  0.66868873     0.11100
H1638       H  0.90089300  0.94441406  0.66970431     0.11100
H1639       H  0.84559218  0.85127949  0.65927929     0.11200
H1640       H  0.88986698  0.84634693  0.65830220     0.10000
C1641       C  0.33892967  0.83422838  0.48578938    -0.03800
C1642       C  0.34413296  0.81110999  0.48222410    -0.09600
C1643       C  0.37279507  0.81498060  0.48333591    -0.17200
C1644       C  0.39652633  0.84195752  0.48800478     0.24900
C1645       C  0.39162504  0.86519664  0.49134533    -0.18900
C1646       C  0.36311256  0.86140515  0.49025127    -0.07800
C1647       C  0.42592286  0.84593857  0.48944300    -0.14200
C1648       C  0.45069238  0.84957638  0.49049146    -0.14000
C1649       C  0.47998514  0.85298134  0.49100648     0.24800
C1650       C  0.50559454  0.88094841  0.48896905    -0.19400
C1651       C  0.53365049  0.88339442  0.48786846    -0.07800
C1652       C  0.53633242  0.85780635  0.48874996    -0.03900
C1653       C  0.51063349  0.83013784  0.49155397    -0.09200
C1654       C  0.48271564  0.82777013  0.49262394    -0.16900
H1655       H  0.32599593  0.78990096  0.47882354     0.11300
H1656       H  0.37637252  0.79684452  0.48068713     0.10600
H1657       H  0.40980166  0.88618764  0.49492609     0.10500
H1658       H  0.35995346  0.87968188  0.49310333     0.11000
H1659       H  0.50372542  0.90064327  0.48772387     0.11100
H1660       H  0.55289869  0.90497306  0.48567296     0.11100
H1661       H  0.51178486  0.80994105  0.49231176     0.11200
H1662       H  0.46308680  0.80602749  0.49422326     0.10000
C1663       C  0.21543726  0.83823618  0.53191706    -0.03800
C1664       C  0.23631936  0.85305326  0.54165976    -0.09600
C1665       C  0.22692960  0.85680607  0.55354079    -0.17200
C1666       C  0.19658900  0.84576569  0.55588255     0.24900
C1667       C  0.17554689  0.83070116  0.54632425    -0.18900
C1668       C  0.18488246  0.82695283  0.53440364    -0.07800
C1669       C  0.18740565  0.85082214  0.56800614    -0.14200
C1670       C  0.18150564  0.85676776  0.57822413    -0.14000
C1671       C  0.17648165  0.86566803  0.59042635     0.24800
C1672       C  0.16665160  0.84556501  0.60050775    -0.19400
C1673       C  0.16303759  0.85472551  0.61249216    -0.07800
C1674       C  0.16936335  0.88421502  0.61454836    -0.03900
C1675       C  0.17900245  0.90416095  0.60430234    -0.09200
C1676       C  0.18250564  0.89490806  0.59232996    -0.16900
H1677       H  0.25997081  0.86201631  0.54008679     0.11300
H1678       H  0.24339100  0.86856719  0.56087870     0.10600
H1679       H  0.15199258  0.82209540  0.54804685     0.10500
H1680       H  0.16819053  0.81533626  0.52713882     0.11000
H1681       H  0.16207200  0.82291489  0.59913780     0.11100
H1682       H  0.15567125  0.83882183  0.62016946     0.11100
H1683       H  0.18399108  0.92696952  0.60553401     0.11200
H1684       H  0.19021767  0.91066244  0.58458370     0.10000
C1685       C  0.16640041  0.23296727  0.70889386    -0.03800
C1686       C  0.18644666  0.24619315  0.71904075    -0.09600
C1687       C  0.18784222  0.22860690  0.72864152    -0.17200
C1688       C  0.16926865  0.19749615  0.72829791     0.24900
C1689       C  0.14774297  0.18422780  0.71871671    -0.18900
C1690       C  0.14617380  0.20191732  0.70908581    -0.07800
C1691       C  0.17478782  0.17972816  0.73714390    -0.14200
C1692       C  0.18441219  0.16933186  0.74471058    -0.14000
C1693       C  0.20089536  0.16321203  0.75401909     0.24800
C1694       C  0.18638158  0.14435355  0.76429064    -0.19400
C1695       C  0.20308679  0.14349859  0.77452554    -0.07800
C1696       C  0.23439255  0.16190404  0.77463296    -0.03900
C1697       C  0.24879878  0.17897932  0.76387624    -0.09200
C1698       C  0.23216796  0.17953730  0.75363784    -0.16900
H1699       H  0.20241006  0.26999854  0.71912377     0.11300
H1700       H  0.20458282  0.23918248  0.73598556     0.10600
H1701       H  0.13327107  0.16015973  0.71832293     0.10500
H1702       H  0.13088048  0.19105310  0.70128533     0.11000
H1703       H  0.16219661  0.13174796  0.76474305     0.11100
H1704       H  0.19143722  0.13056762  0.78279074     0.11100
H1705       H  0.27287055  0.19348070  0.76375752     0.11200
H1706       H  0.24369714  0.19426686  0.74577991     0.10000
C1707       C  0.02580625  0.44457695  0.65808828    -0.03800
C1708       C  0.02218119  0.41738425  0.65352512    -0.09600
C1709       C  0.04394055  0.40971981  0.65573336    -0.17200
C1710       C  0.06976893  0.42897607  0.66256363     0.24900
C1711       C  0.07382456  0.45625129  0.66708523    -0.18900
C1712       C  0.05200045  0.46407748  0.66483130    -0.07800
C1713       C  0.09136481  0.41987560  0.66502932    -0.14200
C1714       C  0.10626515  0.40822526  0.66642929    -0.14000
C1715       C  0.11933164  0.38945333  0.66715401     0.24800
C1716       C  0.14809119  0.39905313  0.66244428    -0.19400
C1717       C  0.15824410  0.37870301  0.66119238    -0.07800
C1718       C  0.13945612  0.34853992  0.66445540    -0.03900
C1719       C  0.11143648  0.33961743  0.66986780    -0.09200
C1720       C  0.10152425  0.35993503  0.67124925    -0.16900
H1721       H  0.00243473  0.40189322  0.64822370     0.11300
H1722       H  0.04048461  0.38857433  0.65217083     0.10600
H1723       H  0.09370669  0.47134396  0.67240551     0.10500
H1724       H  0.05545219  0.48514554  0.66846280     0.11000
H1725       H  0.16201968  0.42178738  0.65915509     0.11100
H1726       H  0.17972958  0.38596843  0.65682669     0.11100
H1727       H  0.09653407  0.31646106  0.67241662     0.11200
H1728       H  0.07923669  0.35215587  0.67486595     0.10000
C1729       C  0.19496573  0.20698663  0.66493654    -0.03800
C1730       C  0.17045238  0.18224671  0.65911824    -0.09600
C1731       C  0.16897655  0.15465464  0.65845546    -0.17200
C1732       C  0.19196117  0.15136344  0.66354772     0.24900
C1733       C  0.21729264  0.17623382  0.66866552    -0.18900
C1734       C  0.21886727  0.20394814  0.66932055    -0.07800
C1735       C  0.18865237  0.12212216  0.66408644    -0.14200
C1736       C  0.18485215  0.09720880  0.66451989    -0.14000
C1737       C  0.18047849  0.06750337  0.66445412     0.24800
C1738       C  0.19982615  0.06171977  0.65744376    -0.19400
C1739       C  0.19530267  0.03283655  0.65689352    -0.07800
C1740       C  0.17120713  0.00914981  0.66331959    -0.03900
C1741       C  0.15194261  0.01516605  0.67045782    -0.09200
C1742       C  0.15661577  0.04422897  0.67103645    -0.16900
H1743       H  0.15171227  0.18380352  0.65560475     0.11300
H1744       H  0.14936824  0.13560952  0.65439081     0.10600
H1745       H  0.23530221  0.17395553  0.67257457     0.10500
H1746       H  0.23798578  0.22247888  0.67389713     0.11000
H1747       H  0.21827432  0.07951072  0.65227779     0.11100
H1748       H  0.21044491  0.02899216  0.65123938     0.11100
H1749       H  0.13319557  0.99742691  0.67549758     0.11200
H1750       H  0.14145652  0.04846737  0.67648774     0.10000
C1751       C  0.05987581  0.19465152  0.66621564    -0.03800
C1752       C  0.03554884  0.19672117  0.66161461    -0.09600
C1753       C  0.00684909  0.17170614  0.66135606    -0.17200
C1754       C  0.00188717  0.14420232  0.66570322     0.24900
C1755       C  0.02573139  0.14191018  0.67057905    -0.18900
C1756       C  0.05463219  0.16702689  0.67084022    -0.07800
C1757       C  0.97237495  0.11838511  0.66479185    -0.14200
C1758       C  0.94738471  0.09730966  0.66370078    -0.14000
C1759       C  0.91768740  0.07185295  0.66262739     0.24800
C1760       C  0.91359442  0.04473189  0.65803504    -0.19400
C1761       C  0.88525640  0.01911260  0.65825487    -0.07800
C1762       C  0.86057640  0.02024667  0.66313618    -0.03900
C1763       C  0.86459774  0.04801003  0.66703624    -0.09200
C1764       C  0.89304533  0.07365431  0.66680896    -0.16900
H1765       H  0.03872031  0.21759876  0.65797178     0.11300
H1766       H  0.98857385  0.17373788  0.65758136     0.10600
H1767       H  0.02207076  0.12066110  0.67399166     0.10500
H1768       H  0.07287432  0.16471157  0.67442263     0.11000
H1769       H  0.93249293  0.04312703  0.65472202     0.11100
H1770       H  0.88299558  0.99812633  0.65517033     0.11100
H1771       H  0.84616168  0.04962160  0.67092706     0.11200
H1772       H  0.89600124  0.09461712  0.67034480     0.10000
C1773       C  0.28118045  0.36473489  0.65973863    -0.03800
C1774       C  0.28635402  0.38911873  0.65214443    -0.09600
C1775       C  0.31568562  0.41214166  0.64961526    -0.17200
C1776       C  0.33999797  0.41106250  0.65474322     0.24900
C1777       C  0.33488242  0.38715059  0.66246932    -0.18900
C1778       C  0.30581781  0.36420912  0.66493853    -0.07800
C1779       C  0.37048763  0.43337460  0.65190697    -0.14200
C1780       C  0.39729570  0.44756782  0.65064812    -0.14000
C1781       C  0.42882124  0.45783578  0.65061250     0.24800
C1782       C  0.43770616  0.43697664  0.64818086    -0.19400
C1783       C  0.46712818  0.44433196  0.65039925    -0.07800
C1784       C  0.48829363  0.47280359  0.65502428    -0.03900
C1785       C  0.47981815  0.49440294  0.65667168    -0.09200
C1786       C  0.45007260  0.48683859  0.65457687    -0.16900
H1787       H  0.26782566  0.39011945  0.64800523     0.11300
H1788       H  0.31937994  0.43050436  0.64358066     0.10600
H1789       H  0.35347887  0.38602767  0.66648219     0.10500
H1790       H  0.30268207  0.34593436  0.67090013     0.11000
H1791       H  0.42148302  0.41442679  0.64520122     0.11100
H1792       H  0.47304816  0.42728032  0.64901670     0.11100
H1793       H  0.49562040  0.51638345  0.66035558     0.11200
H1794       H  0.44339148  0.50308845  0.65661984     0.10000
C1795       C  0.22896312  0.53408630  0.48580635    -0.03800
C1796       C  0.24851518  0.56013959  0.47907746    -0.09600
C1797       C  0.24433552  0.58482206  0.47917660    -0.17200
C1798       C  0.22069646  0.58380653  0.48604183     0.24900
C1799       C  0.20103478  0.55787188  0.49263539    -0.18900
C1800       C  0.20505093  0.53322412  0.49250036    -0.07800
C1801       C  0.21670140  0.60937684  0.48654665    -0.14200
C1802       C  0.21320942  0.63067049  0.48716033    -0.14000
C1803       C  0.21009012  0.65677366  0.48759923     0.24800
C1804       C  0.18335088  0.65500461  0.48386071    -0.19400
C1805       C  0.18151500  0.68099323  0.48305704    -0.07800
C1806       C  0.20648780  0.70913722  0.48595652    -0.03900
C1807       C  0.23272495  0.71037260  0.49034363    -0.09200
C1808       C  0.23449004  0.68443533  0.49112541    -0.16900
H1809       H  0.26712434  0.56153057  0.47384993     0.11300
H1810       H  0.25970789  0.60478456  0.47401482     0.10600
H1811       H  0.18270664  0.55677741  0.49799483     0.10500
H1812       H  0.18966342  0.51364097  0.49785906     0.11000
H1813       H  0.16425350  0.63369051  0.48114527     0.11100
H1814       H  0.16105090  0.67919008  0.47959318     0.11100
H1815       H  0.25243100  0.73157855  0.49265739     0.11200
H1816       H  0.25526953  0.68612684  0.49407738     0.10000
C1817       C  0.35440909  0.52902890  0.48774743    -0.03800
C1818       C  0.35321638  0.55471767  0.49111099    -0.09600
C1819       C  0.37919312  0.58279513  0.49147006    -0.17200
C1820       C  0.40679506  0.58569855  0.48855142     0.24900
C1821       C  0.40855441  0.56012849  0.48597044    -0.18900
C1822       C  0.38251620  0.53191329  0.48558900    -0.07800
C1823       C  0.43271943  0.61508606  0.48726548    -0.14200
C1824       C  0.45372157  0.63995349  0.48569328    -0.14000
C1825       C  0.47907799  0.66949404  0.48386728     0.24800
C1826       C  0.50791438  0.67412051  0.48505851    -0.19400
C1827       C  0.53268391  0.70289313  0.48407145    -0.07800
C1828       C  0.52902241  0.72758076  0.48186465    -0.03900
C1829       C  0.49998535  0.72266057  0.48021382    -0.09200
C1830       C  0.47512628  0.69372974  0.48124427    -0.16900
H1831       H  0.33202590  0.55340959  0.49285495     0.11300
H1832       H  0.37756706  0.60240015  0.49351946     0.10600
H1833       H  0.42986357  0.56212768  0.48373571     0.10500
H1834       H  0.38425708  0.51267005  0.48294744     0.11000
H1835       H  0.51125719  0.65555029  0.48702397     0.11100
H1836       H  0.55472740  0.70587997  0.48535730     0.11100
H1837       H  0.49645473  0.74122769  0.47858358     0.11200
H1838       H  0.45285423  0.69036348  0.48026823     0.10000
C1839       C  0.22768467  0.41300613  0.53503525    -0.03800
C1840       C  0.21778938  0.42383177  0.54503452    -0.09600
C1841       C  0.21313064  0.41125858  0.55707595    -0.17200
C1842       C  0.21828357  0.38770920  0.55933511     0.24900
C1843       C  0.22853065  0.37704135  0.54952245    -0.18900
C1844       C  0.23325120  0.38960265  0.53746154    -0.07800
C1845       C  0.21220453  0.37399213  0.57162401    -0.14200
C1846       C  0.20607087  0.36231781  0.58188239    -0.14000
C1847       C  0.19758281  0.34826839  0.59409402     0.24800
C1848       C  0.21940866  0.35327748  0.60308477    -0.19400
C1849       C  0.21101011  0.34017765  0.61504153    -0.07800
C1850       C  0.18059495  0.32179631  0.61816096    -0.03900
C1851       C  0.15886327  0.31665846  0.60898592    -0.09200
C1852       C  0.16732228  0.32985256  0.59706629    -0.16900
H1853       H  0.21333393  0.44183413  0.54354264     0.11300
H1854       H  0.20518202  0.41969863  0.56459319     0.10600
H1855       H  0.23256031  0.35879022  0.55115500     0.10500
H1856       H  0.24085958  0.38069422  0.53000872     0.11000
H1857       H  0.24290898  0.36747315  0.60088796     0.11100
H1858       H  0.22833413  0.34455252  0.62184724     0.11100
H1859       H  0.13527332  0.30271702  0.61105072     0.11200
H1860       H  0.15022442  0.32583598  0.59019061     0.10000
C1861       C  0.57048054  0.44620479  0.10717330    -0.03800
C1862       C  0.59256543  0.43833707  0.10564985    -0.09600
C1863       C  0.59126315  0.42050737  0.09535953    -0.17200
C1864       C  0.56815292  0.41083642  0.08645904     0.24900
C1865       C  0.54801533  0.42115403  0.08728770    -0.18900
C1866       C  0.54916345  0.43870923  0.09753485    -0.07800
C1867       C  0.56209253  0.38746626  0.07743856    -0.14200
C1868       C  0.55114132  0.36665039  0.07011563    -0.14000
C1869       C  0.53271307  0.34292898  0.06136564     0.24800
C1870       C  0.50173976  0.33102776  0.06159467    -0.19400
C1871       C  0.48385798  0.31255856  0.05177546    -0.07800
C1872       C  0.49668679  0.30554398  0.04159385    -0.03900
C1873       C  0.52741931  0.31537699  0.04198408    -0.09200
C1874       C  0.54539955  0.33420315  0.05178317    -0.16900
H1875       H  0.60910370  0.44359017  0.11296001     0.11300
H1876       H  0.60704534  0.41273253  0.09480659     0.10600
H1877       H  0.53010054  0.41394759  0.08045264     0.10500
H1878       H  0.53192729  0.44451773  0.09840202     0.11000
H1879       H  0.49162284  0.33755650  0.06895752     0.11100
H1880       H  0.46029592  0.30540575  0.05171048     0.11100
H1881       H  0.53797890  0.31071959  0.03417444     0.11200
H1882       H  0.56933916  0.34330278  0.05147563     0.10000
C1883       C  0.43834363  0.57104375  0.37536825    -0.03800
C1884       C  0.42205896  0.58596642  0.37519731    -0.09600
C1885       C  0.40368001  0.58345539  0.38544332    -0.17200
C1886       C  0.40179018  0.56641063  0.39603064     0.24900
C1887       C  0.41982860  0.55354759  0.39662059    -0.18900
C1888       C  0.43781256  0.55568522  0.38635703    -0.07800
C1889       C  0.37908560  0.55883946  0.40560396    -0.14200
C1890       C  0.35957790  0.54813414  0.41352958    -0.14000
C1891       C  0.33718650  0.53090093  0.42297673     0.24800
C1892       C  0.32482749  0.49984986  0.42323588    -0.19400
C1893       C  0.30686636  0.48308834  0.43334799    -0.07800
C1894       C  0.30068036  0.49703228  0.44336592    -0.03900
C1895       C  0.31133394  0.52791365  0.44263455    -0.09200
C1896       C  0.32968229  0.54480293  0.43252722    -0.16900
H1897       H  0.42150412  0.59733267  0.36673524     0.11300
H1898       H  0.38973093  0.59337399  0.38479753     0.10600
H1899       H  0.41860032  0.54025486  0.40471006     0.10500
H1900       H  0.44984428  0.54369595  0.38667332     0.11000
H1901       H  0.33037023  0.48874811  0.41593891     0.11100
H1902       H  0.29917639  0.45940618  0.43370208     0.11100
H1903       H  0.30743825  0.53933517  0.45033780     0.11200
H1904       H  0.33913942  0.56881866  0.43249181     0.10000
C1905       C  0.55663022  0.50726391  0.20099808    -0.03800
C1906       C  0.57663700  0.51398812  0.21113687    -0.09600
C1907       C  0.56902306  0.51820353  0.22333948    -0.17200
C1908       C  0.54135112  0.51582614  0.22562355     0.24900
C1909       C  0.52107388  0.50867722  0.21565986    -0.18900
C1910       C  0.52858765  0.50432354  0.20343618    -0.07800
C1911       C  0.53425818  0.52168449  0.23810326    -0.14200
C1912       C  0.52914976  0.52768746  0.24850285    -0.14000
C1913       C  0.52385409  0.53616385  0.26080669     0.24800
C1914       C  0.50879112  0.51455294  0.27013175    -0.19400
C1915       C  0.50378837  0.52298001  0.28206762    -0.07800
C1916       C  0.51379966  0.55321206  0.28483516    -0.03900
C1917       C  0.52893807  0.57471502  0.27536888    -0.09200
C1918       C  0.53390832  0.56623556  0.26347329    -0.16900
H1919       H  0.59833660  0.51627965  0.20963372     0.11300
H1920       H  0.58490529  0.52371114  0.23096615     0.10600
H1921       H  0.49960353  0.50683862  0.21730521     0.10500
H1922       H  0.51268657  0.49925468  0.19586418     0.11000
H1923       H  0.50093829  0.49119883  0.26818463     0.11100
H1924       H  0.49213699  0.50583610  0.28911632     0.11100
H1925       H  0.53704710  0.59817530  0.27714137     0.11200
H1926       H  0.54563674  0.58318190  0.25634929     0.10000
C1927       C  0.83875237  0.58282599  0.04068674    -0.03800
C1928       C  0.85945788  0.59771244  0.05046695    -0.09600
C1929       C  0.86114424  0.58179615  0.06070533    -0.17200
C1930       C  0.84227470  0.55075818  0.06132601     0.24900
C1931       C  0.82008016  0.53600374  0.05211328    -0.18900
C1932       C  0.81816464  0.55202457  0.04186904    -0.07800
C1933       C  0.84848470  0.53435936  0.07060911    -0.14200
C1934       C  0.85893742  0.52489569  0.07821203    -0.14000
C1935       C  0.87650697  0.51954339  0.08722636     0.24800
C1936       C  0.86302680  0.49674225  0.09621841    -0.19400
C1937       C  0.88017488  0.49490571  0.10602712    -0.07800
C1938       C  0.91089856  0.51611391  0.10700373    -0.03900
C1939       C  0.92447353  0.53764392  0.09743837    -0.09200
C1940       C  0.90740843  0.53930900  0.08764708    -0.16900
H1941       H  0.87566553  0.62138304  0.04977703     0.11300
H1942       H  0.87841321  0.59348328  0.06775769     0.10600
H1943       H  0.80541014  0.51196761  0.05246106     0.10500
H1944       H  0.80233316  0.53992535  0.03436960     0.11000
H1945       H  0.83911475  0.48133907  0.09601263     0.11100
H1946       H  0.86899005  0.47838072  0.11335060     0.11100
H1947       H  0.94802467  0.55435625  0.09793580     0.11200
H1948       H  0.91812554  0.55703694  0.08074905     0.10000
C1949       C  0.87761461  0.53692245  0.14982670    -0.03800
C1950       C  0.85342521  0.51258733  0.15593204    -0.09600
C1951       C  0.82522386  0.50984089  0.15619892    -0.17200
C1952       C  0.82060976  0.53128880  0.15036758     0.24900
C1953       C  0.84473000  0.55617214  0.14464898    -0.18900
C1954       C  0.87307976  0.55903208  0.14439850    -0.07800
C1955       C  0.79088726  0.52703091  0.14992688    -0.14200
C1956       C  0.76568630  0.52262153  0.14964783    -0.14000
C1957       C  0.73575081  0.51785560  0.14966100     0.24800
C1958       C  0.73104531  0.54081648  0.15370575    -0.19400
C1959       C  0.70215410  0.53631159  0.15411416    -0.07800
C1960       C  0.67732671  0.50870484  0.15045279    -0.03900
C1961       C  0.68221821  0.48577784  0.14623245    -0.09200
C1962       C  0.71127532  0.49033552  0.14586924    -0.16900
H1963       H  0.85601602  0.49506163  0.16014726     0.11300
H1964       H  0.80680443  0.49052604  0.16067725     0.10600
H1965       H  0.84145834  0.57294612  0.14009482     0.10500
H1966       H  0.89104841  0.57779516  0.13946179     0.11000
H1967       H  0.74972150  0.56218186  0.15667082     0.11100
H1968       H  0.69927074  0.55446247  0.15743049     0.00300
H1969       H  0.66359901  0.46421544  0.14345155     0.11200
H1970       H  0.71461447  0.47232993  0.14274842     0.10000
C1971       C  0.23305199  0.76437565  0.44155146    -0.03800
C1972       C  0.21414751  0.75962817  0.43121623    -0.09600
C1973       C  0.21288742  0.74179336  0.42105484    -0.17200
C1974       C  0.23037533  0.72832509  0.42109672     0.24900
C1975       C  0.25082863  0.73463140  0.43092543    -0.18900
C1976       C  0.25233241  0.75279711  0.44108985    -0.07800
C1977       C  0.22443053  0.70555522  0.41180834    -0.14200
C1978       C  0.21471734  0.68557724  0.40409992    -0.14000
C1979       C  0.19846093  0.66268680  0.39474551     0.24800
C1980       C  0.21331432  0.65825126  0.38465718    -0.19400
C1981       C  0.19697030  0.64027999  0.37436836    -0.07800
C1982       C  0.16568580  0.62705910  0.37402282    -0.03900
C1983       C  0.15089453  0.62968669  0.38465516    -0.09200
C1984       C  0.16718972  0.64735935  0.39494279    -0.16900
H1985       H  0.19892168  0.76812908  0.43139072     0.11300
H1986       H  0.19694385  0.73706259  0.41352534     0.10600
H1987       H  0.26435925  0.72420101  0.43108795     0.10500
H1988       H  0.26664892  0.75565120  0.44904851     0.11000
H1989       H  0.23751272  0.67008504  0.38438006     0.11100
H1990       H  0.20894705  0.63899524  0.36622693     0.11100
H1991       H  0.12683112  0.61981226  0.38462175     0.11200
H1992       H  0.15543136  0.65060506  0.40268878     0.10000
C1993       C  0.07773374  0.55568540  0.28255732    -0.03800
C1994       C  0.05613868  0.56369238  0.27994292    -0.09600
C1995       C  0.04292523  0.55838522  0.26798897    -0.17200
C1996       C  0.05113138  0.54508904  0.25849444     0.24900
C1997       C  0.07247107  0.53692929  0.26100305    -0.18900
C1998       C  0.08566808  0.54213875  0.27294643    -0.07800
C1999       C  0.03779754  0.53994398  0.24615532    -0.14200
C2000       C  0.02686819  0.53550411  0.23576190    -0.14000
C2001       C  0.01401528  0.52968328  0.22330817     0.24800
C2002       C  0.02643568  0.55177869  0.21400322    -0.19400
C2003       C  0.01450980  0.54573204  0.20178087    -0.07800
C2004       C  0.99004989  0.51739563  0.19870339    -0.03900
C2005       C  0.97749935  0.49549095  0.20819962    -0.09200
C2006       C  0.98940629  0.50162988  0.22040517    -0.16900
H2007       H  0.04936156  0.57396368  0.28713454     0.11300
H2008       H  0.02635383  0.56470539  0.26614606     0.10600
H2009       H  0.07895744  0.52658706  0.25371989     0.10500
H2010       H  0.10215826  0.53564194  0.27462298     0.11000
H2011       H  0.04551541  0.57358012  0.21616047     0.11100
H2012       H  0.02473349  0.56308014  0.19470906     0.11100
H2013       H  0.95858457  0.47349885  0.20619322     0.11200
H2014       H  0.97959507  0.48438451  0.22754536     0.10000
C2015       C  0.20718741  0.56518277  0.33024839    -0.03800
C2016       C  0.23504487  0.58870363  0.33440808    -0.09600
C2017       C  0.26011353  0.58521762  0.33455836    -0.17200
C2018       C  0.25759666  0.55821304  0.33058430     0.24900
C2019       C  0.22992383  0.53466302  0.32658452    -0.18900
C2020       C  0.20494318  0.53807926  0.32641051    -0.07800
C2021       C  0.28329961  0.55452933  0.33043534    -0.14200
C2022       C  0.30450306  0.55093020  0.33015057    -0.14000
C2023       C  0.33035864  0.54750085  0.32996840     0.24800
C2024       C  0.32870205  0.52151013  0.33467029    -0.19400
C2025       C  0.35452660  0.51944157  0.33548097    -0.07800
C2026       C  0.38236241  0.54343726  0.33161952    -0.03900
C2027       C  0.38342569  0.56886573  0.32636541    -0.09200
C2028       C  0.35765200  0.57086582  0.32558002    -0.16900
H2029       H  0.23755616  0.60987784  0.33735089     0.11300
H2030       H  0.28147155  0.60363466  0.33766779     0.10600
H2031       H  0.22768568  0.51368256  0.32349168     0.10500
H2032       H  0.18389657  0.51950638  0.32312738     0.11000
H2033       H  0.30764501  0.50323103  0.33806889     0.11100
H2034       H  0.35290279  0.49965093  0.33964163     0.11100
H2035       H  0.40441807  0.58782194  0.32332278     0.11200
H2036       H  0.35920691  0.59104947  0.32189236     0.10000
C2037       C  0.63165569  0.17352587  0.10712803    -0.03800
C2038       C  0.64407601  0.20473171  0.10680872    -0.09600
C2039       C  0.66140109  0.22131217  0.09644009    -0.17200
C2040       C  0.66607225  0.20678558  0.08624489     0.24900
C2041       C  0.65176876  0.17553396  0.08611678    -0.18900
C2042       C  0.63478578  0.15904498  0.09647344    -0.07800
C2043       C  0.68806147  0.22342831  0.07661834    -0.14200
C2044       C  0.70743166  0.23346205  0.06864866    -0.14000
C2045       C  0.72998536  0.23982032  0.05918401     0.24800
C2046       C  0.74492406  0.22371408  0.05938192    -0.19400
C2047       C  0.76280299  0.22526352  0.04920634    -0.07800
C2048       C  0.76626042  0.24317147  0.03869668    -0.03900
C2049       C  0.75312707  0.26112331  0.03894464    -0.09200
C2050       C  0.73486149  0.25928033  0.04912013    -0.16900
H2051       H  0.64255568  0.21650802  0.11499188     0.11300
H2052       H  0.67247074  0.24549219  0.09670163     0.10600
H2053       H  0.65521131  0.16398056  0.07832725     0.10500
H2054       H  0.62569750  0.13507975  0.09651069     0.11000
H2055       H  0.74133878  0.20854092  0.06707242     0.11100
H2056       H  0.77238145  0.21095407  0.04916511     0.11100
H2057       H  0.75487843  0.27454670  0.03082475     0.11200
H2058       H  0.72331489  0.27174608  0.04880445     0.10000
C2059       C  0.86755088  0.40428774  0.14749001    -0.03800
C2060       C  0.83920698  0.39995742  0.14454164    -0.09600
C2061       C  0.81407277  0.37106764  0.14436594    -0.17200
C2062       C  0.81708658  0.34630927  0.14707726     0.24900
C2063       C  0.84526822  0.35044373  0.14975628    -0.18900
C2064       C  0.87029285  0.37915784  0.14997172    -0.07800
C2065       C  0.79136794  0.31664020  0.14751068    -0.14200
C2066       C  0.77036698  0.29151441  0.14826434    -0.14000
C2067       C  0.74486123  0.26180943  0.14925819     0.24800
C2068       C  0.74570894  0.23724972  0.14420714    -0.19400
C2069       C  0.71998463  0.20880247  0.14427943    -0.07800
C2070       C  0.69308624  0.20468988  0.14936230    -0.03900
C2071       C  0.69299306  0.22932250  0.15497227    -0.09200
C2072       C  0.71866663  0.25763389  0.15489260    -0.16900
H2073       H  0.83636835  0.41887172  0.14268236     0.11300
H2074       H  0.79228930  0.36808527  0.14230534     0.10600
H2075       H  0.84785363  0.33146948  0.15187123     0.10500
H2076       H  0.89176459  0.38167350  0.15228260     0.11000
H2077       H  0.76595055  0.24025101  0.13985590     0.11100
H2078       H  0.72077025  0.19042517  0.13978365     0.11100
H2079       H  0.67270454  0.22702063  0.15895566     0.11200
H2080       H  0.71780319  0.27645166  0.15888224     0.10000
C2081       C  0.56688336  0.21046990  0.15124515    -0.03800
C2082       C  0.58743801  0.23730478  0.14524145    -0.09600
C2083       C  0.58197820  0.26111333  0.14461586    -0.17200
C2084       C  0.55595165  0.25834617  0.14995733     0.24900
C2085       C  0.53524415  0.23160188  0.15575321    -0.18900
C2086       C  0.54061275  0.20788105  0.15639092    -0.07800
C2087       C  0.55079910  0.28314176  0.14992203    -0.14200
C2088       C  0.54694988  0.30419357  0.15031054    -0.14000
C2089       C  0.54452652  0.33063307  0.15084561     0.24800
C2090       C  0.51861999  0.33002686  0.14667493    -0.19400
C2091       C  0.51763126  0.35651139  0.14624910    -0.07800
C2092       C  0.54263217  0.38391170  0.14996422    -0.03900
C2093       C  0.56801428  0.38391792  0.15464727    -0.09200
C2094       C  0.56892252  0.35752217  0.15506402    -0.16900
H2095       H  0.60786132  0.24004601  0.14121084     0.11300
H2096       H  0.59821417  0.28178449  0.14011853     0.10600
H2097       H  0.51507582  0.22919151  0.15993699     0.10500
H2098       H  0.52426314  0.18759810  0.16108915     0.11000
H2099       H  0.49954643  0.30928775  0.14341285     0.11100
H2100       H  0.49782724  0.35571826  0.14252758     0.11100
H2101       H  0.58768128  0.40453551  0.15758665     0.11200
H2102       H  0.58904335  0.35826090  0.15834799     0.10000
C2103       C  0.56724838  0.84251611  0.44235769    -0.03800
C2104       C  0.53751863  0.81934396  0.44048908    -0.09600
C2105       C  0.52076153  0.82040124  0.43029519    -0.17200
C2106       C  0.53371649  0.84442313  0.42181929     0.24900
C2107       C  0.56381114  0.86646847  0.42322797    -0.18900
C2108       C  0.58040170  0.86559650  0.43340393    -0.07800
C2109       C  0.51628614  0.84835677  0.41219953    -0.14200
C2110       C  0.50600475  0.85691663  0.40409874    -0.14000
C2111       C  0.49995002  0.87260430  0.39437355     0.24800
C2112       C  0.48089631  0.85729832  0.38419222    -0.19400
C2113       C  0.47973180  0.87323935  0.37372854    -0.07800
C2114       C  0.49796791  0.90457876  0.37330302    -0.03900
C2115       C  0.51537276  0.91975808  0.38393890    -0.09200
C2116       C  0.51625633  0.90390316  0.39439072    -0.16900
H2117       H  0.52669438  0.80153218  0.44733374     0.11300
H2118       H  0.49747504  0.80319535  0.42932854     0.10600
H2119       H  0.57415730  0.88512728  0.41674283     0.10500
H2120       H  0.60321994  0.88376066  0.43458949     0.11000
H2121       H  0.46828467  0.83307741  0.38401470     0.11100
H2122       H  0.46661907  0.86095693  0.36555937     0.11100
H2123       H  0.52983720  0.94384360  0.38381792     0.11200
H2124       H  0.53113560  0.91604927  0.40216916     0.10000
C2125       C  0.39490366  0.86521755  0.32917068    -0.03800
C2126       C  0.38965639  0.83701124  0.33296564    -0.09600
C2127       C  0.36050313  0.81237378  0.33322389    -0.17200
C2128       C  0.33630147  0.81568140  0.32976236     0.24900
C2129       C  0.34129645  0.84373575  0.32617990    -0.18900
C2130       C  0.37034580  0.86830755  0.32586236    -0.07800
C2131       C  0.30639147  0.79025702  0.32962861    -0.14200
C2132       C  0.28148828  0.76872785  0.32937973    -0.14000
C2133       C  0.25245336  0.74203513  0.32925518     0.24800
C2134       C  0.22774082  0.74207332  0.33455276    -0.19400
C2135       C  0.20024081  0.71536714  0.33545025    -0.07800
C2136       C  0.19720759  0.68827808  0.33108728    -0.03900
C2137       C  0.22189582  0.68881741  0.32527232    -0.09200
C2138       C  0.24928138  0.71548362  0.32439067    -0.16900
H2139       H  0.40808479  0.83386364  0.33547523     0.11300
H2140       H  0.35687242  0.79070391  0.33598954     0.10600
H2141       H  0.32275588  0.84656337  0.32349058     0.10500
H2142       H  0.37357413  0.88969496  0.32290230     0.11000
H2143       H  0.22994980  0.76254451  0.33832949     0.11100
H2144       H  0.18175573  0.71575777  0.34000941     0.11100
H2145       H  0.22042776  0.66843629  0.32181539     0.11200
H2146       H  0.26824139  0.71520962  0.32024923     0.10000
C2147       C  0.50719236  0.67595624  0.33225125    -0.03800
C2148       C  0.48473788  0.68064856  0.33722012    -0.09600
C2149       C  0.48853240  0.70937199  0.33739200    -0.17200
C2150       C  0.51476365  0.73370491  0.33260777     0.24900
C2151       C  0.53733914  0.72928689  0.32781513    -0.18900
C2152       C  0.53362569  0.70068125  0.32763609    -0.07800
C2153       C  0.51832012  0.76309201  0.33227660    -0.14200
C2154       C  0.52123200  0.78764934  0.33169353    -0.14000
C2155       C  0.52371327  0.81654469  0.33097491     0.24800
C2156       C  0.55014972  0.84241695  0.33462165    -0.19400
C2157       C  0.55172498  0.87017215  0.33468326    -0.07800
C2158       C  0.52680188  0.87237362  0.33110872    -0.03900
C2159       C  0.50071808  0.84632307  0.32701635    -0.09200
C2160       C  0.49921323  0.81867069  0.32697602    -0.16900
H2161       H  0.46410625  0.66210508  0.34079894     0.11300
H2162       H  0.47087406  0.71253637  0.34111240     0.10600
H2163       H  0.55770215  0.74791606  0.32407105     0.10500
H2164       H  0.55133950  0.69790430  0.32370391     0.11000
H2165       H  0.56928532  0.84103489  0.33772095     0.11100
H2166       H  0.57203745  0.88965820  0.33799032     0.11100
H2167       H  0.48100927  0.84705258  0.32428325     0.11200
H2168       H  0.47865063  0.79881579  0.32411745     0.10000
C2169       C  0.57042876  0.08594427  0.19907129    -0.03800
C2170       C  0.57528771  0.06177373  0.20062359    -0.09600
C2171       C  0.57159050  0.04838554  0.21247203    -0.17200
C2172       C  0.56317139  0.05905164  0.22293925     0.24900
C2173       C  0.55892143  0.08343467  0.22152995    -0.18900
C2174       C  0.56247453  0.09676023  0.20971260    -0.07800
C2175       C  0.55757660  0.04439623  0.23502902    -0.14200
C2176       C  0.55116693  0.03238889  0.24523263    -0.14000
C2177       C  0.54167872  0.01817502  0.25740456     0.24800
C2178       C  0.51247319  0.99424422  0.25898941    -0.19400
C2179       C  0.50270610  0.98100642  0.27084998    -0.07800
C2180       C  0.52205514  0.99146680  0.28135042    -0.03900
C2181       C  0.55147890  0.01545654  0.27964428    -0.09200
C2182       C  0.56116312  0.02872487  0.26776443    -0.16900
H2183       H  0.58141307  0.05284653  0.19264770     0.11300
H2184       H  0.57488690  0.02947869  0.21342347     0.10600
H2185       H  0.55240265  0.09189850  0.22954848     0.10500
H2186       H  0.55872339  0.11539121  0.20890280     0.11000
H2187       H  0.49713108  0.98594437  0.25106461     0.11100
H2188       H  0.47994716  0.96262628  0.27178956     0.11100
H2189       H  0.56694637  0.02420977  0.28751197     0.11200
H2190       H  0.58377029  0.04734783  0.26668682     0.10000
C2191       C  0.14473423  0.83435983  0.16046700    -0.03800
C2192       C  0.11518759  0.81310658  0.16378332    -0.09600
C2193       C  0.10695209  0.78345233  0.16608984    -0.17200
C2194       C  0.12795860  0.77426841  0.16504830     0.24900
C2195       C  0.15777332  0.79543704  0.16213723    -0.18900
C2196       C  0.16620177  0.82545444  0.15995995    -0.07800
C2197       C  0.11753562  0.74264787  0.16596974    -0.14200
C2198       C  0.10310291  0.71558140  0.16586744    -0.14000
C2199       C  0.08008998  0.68448912  0.16445623     0.24800
C2200       C  0.08540708  0.66092462  0.16666376    -0.19400
C2201       C  0.06262818  0.63112453  0.16448470    -0.07800
C2202       C  0.03437921  0.62468472  0.16003554    -0.03900
C2203       C  0.02927275  0.64857136  0.15819312    -0.09200
C2204       C  0.05183782  0.67803828  0.16037642    -0.16900
H2205       H  0.09818188  0.81930086  0.16428460     0.11300
H2206       H  0.08382861  0.76739025  0.16827605     0.10600
H2207       H  0.17423892  0.78861551  0.16118975     0.10500
H2208       H  0.18903269  0.84129749  0.15728914     0.11000
H2209       H  0.10715769  0.66556553  0.16986995     0.11100
H2210       H  0.06725529  0.61325999  0.16604751     0.11100
H2211       H  0.00785484  0.64460227  0.15485045     0.11200
H2212       H  0.04733058  0.69595669  0.15866956     0.10000
C2213       C  0.49651979  0.05979125  0.15367067    -0.03800
C2214       C  0.47749279  0.06924689  0.14884047    -0.09600
C2215       C  0.44729515  0.04873982  0.14672684    -0.17200
C2216       C  0.43550558  0.01848326  0.14953064     0.24900
C2217       C  0.45458766  0.00857412  0.15379108    -0.18900
C2218       C  0.48510300  0.02914790  0.15574552    -0.07800
C2219       C  0.40345405  0.99896782  0.14940693    -0.14200
C2220       C  0.37660859  0.98727382  0.15025855    -0.14000
C2221       C  0.34592082  0.97919570  0.15234716     0.24800
C2222       C  0.32206040  0.95021975  0.14994510    -0.19400
C2223       C  0.29253741  0.94312816  0.15230877    -0.07800
C2224       C  0.28663331  0.96495912  0.15714236    -0.03900
C2225       C  0.31083512  0.99398319  0.15941443    -0.09200
C2226       C  0.34011310  0.00098128  0.15702982    -0.16900
H2227       H  0.48580002  0.09276208  0.14716632     0.11300
H2228       H  0.43281929  0.05674910  0.14348965     0.10600
H2229       H  0.44568909  0.98525645  0.15611079     0.10500
H2230       H  0.49929532  0.02143907  0.15961527     0.11000
H2231       H  0.32625444  0.93313841  0.14631563     0.11100
H2232       H  0.27441847  0.92059489  0.15045435     0.11100
H2233       H  0.30721707  0.01140039  0.16309410     0.11200
H2234       H  0.35832989  0.02347924  0.15891708     0.10000
C2235       C  0.29955809  0.83783846  0.94027254    -0.03800
C2236       C  0.30713703  0.85832393  0.93032707    -0.09600
C2237       C  0.32489359  0.85874382  0.92034168    -0.17200
C2238       C  0.33541959  0.83872407  0.92007794     0.24900
C2239       C  0.32610568  0.81664922  0.92940933    -0.18900
C2240       C  0.30804204  0.81607183  0.93944472    -0.07800
C2241       C  0.35810807  0.84358574  0.91092934    -0.14200
C2242       C  0.37790539  0.85370632  0.90316288    -0.14000
C2243       C  0.40007958  0.87151683  0.89380373     0.24800
C2244       C  0.40962545  0.85850964  0.88467184    -0.19400
C2245       C  0.42734834  0.87563992  0.87448864    -0.07800
C2246       C  0.43531125  0.90580623  0.87329665    -0.03900
C2247       C  0.42717253  0.91901047  0.88295172    -0.09200
C2248       C  0.40978356  0.90202552  0.89311049    -0.16900
H2249       H  0.30098451  0.87537853  0.93070478     0.11300
H2250       H  0.33186136  0.87589444  0.91318980     0.10600
H2251       H  0.33409963  0.80101035  0.92931585     0.10500
H2252       H  0.30286831  0.80029899  0.94705115     0.11000
H2253       H  0.40218638  0.83489182  0.88507205     0.11100
H2254       H  0.43290912  0.86477240  0.86710062     0.11100
H2255       H  0.43289046  0.94214632  0.88228889     0.11200
H2256       H  0.40256745  0.91238329  0.90009177     0.10000
C2257       C  0.95056766  0.70324820  0.98754773    -0.03800
C2258       C  0.95705224  0.73123205  0.98277927    -0.09600
C2259       C  0.98682124  0.75380962  0.98053626    -0.17200
C2260       C  0.01031611  0.74856062  0.98300089     0.24900
C2261       C  0.00385760  0.72060236  0.98746803    -0.18900
C2262       C  0.97439818  0.69822212  0.98971991    -0.07800
C2263       C  0.04134837  0.77140771  0.98145779    -0.14200
C2264       C  0.06838227  0.78568562  0.98139999    -0.14000
C2265       C  0.09977096  0.79555000  0.98267584     0.24800
C2266       C  0.10775340  0.77379182  0.98426851    -0.19400
C2267       C  0.13736740  0.78207142  0.98662914    -0.07800
C2268       C  0.15982414  0.81240884  0.98741902    -0.03900
C2269       C  0.15197391  0.83435601  0.98539289    -0.09200
C2270       C  0.12199105  0.82593863  0.98311165    -0.16900
H2271       H  0.93923109  0.73579941  0.98098203     0.11300
H2272       H  0.99149297  0.77535223  0.97705518     0.10600
H2273       H  0.02175237  0.71618499  0.98939906     0.10500
H2274       H  0.97038021  0.67701404  0.99333933     0.11000
H2275       H  0.09086306  0.75024295  0.98398657     0.11100
H2276       H  0.14261086  0.76457893  0.98805254     0.11100
H2277       H  0.16874081  0.85787271  0.98603265     0.11200
H2278       H  0.11609516  0.84303733  0.98196603     0.10000
C2279       C  0.28801231  0.95594713  0.98980480    -0.03800
C2280       C  0.31526113  0.98074619  0.98590746    -0.09600
C2281       C  0.32175403  0.00984737  0.98845846    -0.17200
C2282       C  0.30122942  0.01489188  0.99495053     0.24900
C2283       C  0.27390659  0.99044322  0.99883815    -0.18900
C2284       C  0.26728857  0.96110161  0.99626489    -0.07800
C2285       C  0.30912852  0.04536406  0.99766362    -0.14200
C2286       C  0.32053876  0.07208535  0.99914237    -0.14000
C2287       C  0.33989639  0.10416762  0.99982081     0.24800
C2288       C  0.33050737  0.12370967  0.99560127    -0.19400
C2289       C  0.35137165  0.15434306  0.99413453    -0.07800
C2290       C  0.38178729  0.16542358  0.99669398    -0.03900
C2291       C  0.39051362  0.14596346  0.00170969    -0.09200
C2292       C  0.36975746  0.11565585  0.00327183    -0.16900
H2293       H  0.33173622  0.97772702  0.98088353     0.11300
H2294       H  0.34297494  0.02850471  0.98540455     0.10600
H2295       H  0.25783442  0.99403281  0.00389590     0.10500
H2296       H  0.24614074  0.94252376  0.99939983     0.11000
H2297       H  0.30747617  0.11506990  0.99282497     0.11100
H2298       H  0.34416680  0.16881929  0.99013391     0.11100
H2299       H  0.41381261  0.15394303  0.00377675     0.11200
H2300       H  0.37738637  0.10086617  0.00650196     0.10000
C2301       C  0.23431525  0.85951984  0.03212060    -0.03800
C2302       C  0.23082698  0.84228208  0.04291534    -0.09600
C2303       C  0.22778448  0.85197924  0.05489903    -0.17200
C2304       C  0.22802864  0.87895052  0.05629644     0.24900
C2305       C  0.23153956  0.89628353  0.04562460    -0.18900
C2306       C  0.23477018  0.88672866  0.03363502    -0.07800
C2307       C  0.22364290  0.88825565  0.06861031    -0.14200
C2308       C  0.21841325  0.89481411  0.07888810    -0.14000
C2309       C  0.20974919  0.90067323  0.09106129     0.24800
C2310       C  0.22949786  0.91009590  0.10134018    -0.19400
C2311       C  0.22012074  0.91384293  0.11329328    -0.07800
C2312       C  0.19074549  0.90802801  0.11514534    -0.03900
C2313       C  0.17137147  0.89925783  0.10467011    -0.09200
C2314       C  0.18082195  0.89564583  0.09275254    -0.16900
H2315       H  0.23043697  0.82127762  0.04211009     0.11300
H2316       H  0.22497667  0.83828962  0.06306670     0.10600
H2317       H  0.23155351  0.91708931  0.04655334     0.10500
H2318       H  0.23719194  0.90044830  0.02553300     0.11000
H2319       H  0.25196290  0.91407730  0.10016919     0.11100
H2320       H  0.23567772  0.92070517  0.12112076     0.11100
H2321       H  0.14872878  0.89482751  0.10569372     0.11200
H2322       H  0.16533804  0.88841196  0.08488228     0.10000
C2323       C  0.62505649  0.04674343  0.15689182    -0.03800
C2324       C  0.60660430  0.02298559  0.16501667    -0.09600
C2325       C  0.61396696  0.00118937  0.16808469    -0.17200
C2326       C  0.63970470  0.00280086  0.16299903     0.24900
C2327       C  0.65783203  0.02613172  0.15479227    -0.18900
C2328       C  0.65064574  0.04789718  0.15177839    -0.07800
C2329       C  0.64857687  0.98140863  0.16629005    -0.14200
C2330       C  0.66038914  0.96679675  0.16812712    -0.14000
C2331       C  0.67964216  0.95430186  0.16908653     0.24800
C2332       C  0.70967076  0.97329512  0.17228988    -0.19400
C2333       C  0.73014626  0.96356753  0.17101143    -0.07800
C2334       C  0.72094579  0.93457276  0.16655517    -0.03900
C2335       C  0.69040397  0.91478467  0.16421549    -0.09200
C2336       C  0.66984866  0.92471243  0.16538459    -0.16900
H2337       H  0.58680585  0.02152156  0.16914374     0.11300
H2338       H  0.59977925  0.98330783  0.17448466     0.10600
H2339       H  0.67780129  0.02768800  0.15079439     0.10500
H2340       H  0.66526470  0.06574016  0.14545233     0.11000
H2341       H  0.71762113  0.99623806  0.17510418     0.11100
H2342       H  0.75356741  0.97929538  0.17284249     0.11100
H2343       H  0.68284341  0.89251513  0.16058506     0.11200
H2344       H  0.64670568  0.90984235  0.16277913     0.10000
C2345       C  0.86507242  0.88174625  0.16449605    -0.03800
C2346       C  0.88968627  0.90777004  0.15949927    -0.09600
C2347       C  0.91738105  0.90976209  0.15797739    -0.17200
C2348       C  0.92103272  0.88579660  0.16135290     0.24900
C2349       C  0.89637854  0.85925767  0.16574932    -0.18900
C2350       C  0.86855211  0.85719701  0.16729863    -0.07800
C2351       C  0.95045311  0.88925668  0.16101534    -0.14200
C2352       C  0.97544083  0.89305860  0.16116918    -0.14000
C2353       C  0.00523155  0.89742536  0.16154674     0.24800
C2354       C  0.01023454  0.87490926  0.15711417    -0.19400
C2355       C  0.03897775  0.87893095  0.15740790    -0.07800
C2356       C  0.06333427  0.90559736  0.16216868    -0.03900
C2357       C  0.05809773  0.92808581  0.16670186    -0.09200
C2358       C  0.02923727  0.92400871  0.16637726    -0.16900
H2359       H  0.88793984  0.92715516  0.15723255     0.11300
H2360       H  0.93620898  0.93039990  0.15454832     0.10600
H2361       H  0.89889868  0.84051117  0.16838236     0.10500
H2362       H  0.85019918  0.83692463  0.17122037     0.11000
H2363       H  0.99191043  0.85423730  0.15336820     0.11100
H2364       H  0.04213147  0.86116683  0.15379540     0.11100
H2365       H  0.07633243  0.94894997  0.17033232     0.11200
H2366       H  0.02567909  0.94163942  0.16984005     0.10000
C2367       C  0.70621905  0.79181521  0.16097131    -0.03800
C2368       C  0.68153148  0.78520311  0.15324208    -0.09600
C2369       C  0.65944184  0.75529967  0.15077689    -0.17200
C2370       C  0.66169471  0.73181609  0.15612854     0.24900
C2371       C  0.68575874  0.73840668  0.16408461    -0.18900
C2372       C  0.70777180  0.76800862  0.16647179    -0.07800
C2373       C  0.64046813  0.70075684  0.15333659    -0.14200
C2374       C  0.62692706  0.67381869  0.15216223    -0.14000
C2375       C  0.61672495  0.64219053  0.15224192     0.24800
C2376       C  0.63814997  0.63346920  0.15221799    -0.19400
C2377       C  0.62967367  0.60361137  0.15408106    -0.07800
C2378       C  0.59948705  0.58169907  0.15598967    -0.03900
C2379       C  0.57774445  0.59020939  0.15532396    -0.09200
C2380       C  0.58637542  0.62040327  0.15354798    -0.16900
H2381       H  0.67972139  0.80304114  0.14887159     0.11300
H2382       H  0.64093788  0.75053008  0.14458549     0.10600
H2383       H  0.68779698  0.72054462  0.16831440     0.10500
H2384       H  0.72625363  0.77223534  0.17257304     0.11000
H2385       H  0.66167087  0.64999543  0.15123795     0.11100
H2386       H  0.64696992  0.59780347  0.15439718     0.11100
H2387       H  0.55436476  0.57386155  0.15679037     0.11200
H2388       H  0.56954764  0.62685776  0.15363757     0.10000
C2389       C  0.56757088  0.77232270  0.94518541    -0.03800
C2390       C  0.58238925  0.76895996  0.93473247    -0.09600
C2391       C  0.56622190  0.75079510  0.92452384    -0.17200
C2392       C  0.53494910  0.73548832  0.92458810     0.24900
C2393       C  0.51997239  0.74016607  0.93458214    -0.18900
C2394       C  0.53622552  0.75867028  0.94480855    -0.07800
C2395       C  0.51893855  0.71282923  0.91504732    -0.14200
C2396       C  0.50998236  0.69345840  0.90703366    -0.14000
C2397       C  0.50531301  0.67161049  0.89741116     0.24800
C2398       C  0.48308672  0.66297268  0.88814820    -0.19400
C2399       C  0.48205328  0.64532681  0.87782980    -0.07800
C2400       C  0.50353178  0.63656303  0.87661066    -0.03900
C2401       C  0.52452768  0.64381961  0.88635361    -0.09200
C2402       C  0.52532377  0.66109256  0.89667037    -0.16900
H2403       H  0.60647049  0.77899780  0.93479799     0.11300
H2404       H  0.57812155  0.74738352  0.91688577     0.10600
H2405       H  0.49577187  0.72835408  0.93479139     0.10500
H2406       H  0.52419582  0.76036665  0.95283708     0.11000
H2407       H  0.46751255  0.67102186  0.88857398     0.11100
H2408       H  0.46595756  0.64048056  0.87036255     0.11100
H2409       H  0.54140236  0.63748314  0.88564527     0.11200
H2410       H  0.54261191  0.66755551  0.90375350     0.10000
C2411       C  0.68447169  0.91638851  0.98797070    -0.03800
C2412       C  0.67567499  0.93462183  0.98182576    -0.09600
C2413       C  0.69647701  0.96446314  0.97923821    -0.17200
C2414       C  0.72634346  0.97667754  0.98287373     0.24900
C2415       C  0.73567755  0.95825819  0.98842048    -0.18900
C2416       C  0.71482485  0.92807649  0.99085902    -0.07800
C2417       C  0.74573960  0.00871415  0.98240496    -0.14200
C2418       C  0.75702965  0.03556923  0.98297534    -0.14000
C2419       C  0.76436298  0.06614580  0.98477430     0.24800
C2420       C  0.79294794  0.09034612  0.98217400    -0.19400
C2421       C  0.79936476  0.11976374  0.98432332    -0.07800
C2422       C  0.77723496  0.12522455  0.98912339    -0.03900
C2423       C  0.74857233  0.10067748  0.99155725    -0.09200
C2424       C  0.74225293  0.07149542  0.98940029    -0.16900
H2425       H  0.65237317  0.92609440  0.97954801     0.11300
H2426       H  0.68890294  0.97845998  0.97502972     0.10600
H2427       H  0.75866635  0.96752698  0.99141009     0.10500
H2428       H  0.72198555  0.91451935  0.99576672     0.11000
H2429       H  0.81026028  0.08650052  0.97857563     0.11100
H2430       H  0.82162494  0.13815668  0.98233377     0.11100
H2431       H  0.73095238  0.10394827  0.99522846     0.11200
H2432       H  0.72004643  0.05299792  0.99143750     0.10000
C2433       C  0.53174090  0.84491362  0.98680856    -0.03800
C2434       C  0.50238653  0.82107418  0.98496012    -0.09600
C2435       C  0.47842999  0.82630182  0.98474644    -0.17200
C2436       C  0.48354014  0.85538185  0.98629689     0.24900
C2437       C  0.51273388  0.87926769  0.98788638    -0.18900
C2438       C  0.53663799  0.87409938  0.98816500    -0.07800
C2439       C  0.45883112  0.86066868  0.98645641    -0.14200
C2440       C  0.43765816  0.86433561  0.98660622    -0.14000
C2441       C  0.41116816  0.86670202  0.98650680     0.24800
C2442       C  0.38419752  0.84294237  0.99097816    -0.19400
C2443       C  0.35776053  0.84364962  0.98982132    -0.07800
C2444       C  0.35788100  0.86822892  0.98417844    -0.03900
C2445       C  0.38534033  0.89263303  0.98020828    -0.09200
C2446       C  0.41179383  0.89180284  0.98132957    -0.16900
H2447       H  0.49788311  0.79837005  0.98398856     0.11300
H2448       H  0.45589078  0.80762449  0.98351809     0.10600
H2449       H  0.51700583  0.90186131  0.98906489     0.10500
H2450       H  0.55897008  0.89298383  0.98958420     0.11000
H2451       H  0.38343015  0.82341596  0.99501260     0.11100
H2452       H  0.33705601  0.82447153  0.99296771     0.11100
H2453       H  0.38619893  0.91175308  0.97571461     0.11200
H2454       H  0.43254260  0.91032409  0.97781496     0.10000
C2455       C  0.69504538  0.78726273  0.99449733    -0.03800
C2456       C  0.72448556  0.80991041  0.99738030    -0.09600
C2457       C  0.74727868  0.80302442  0.99868014    -0.17200
C2458       C  0.74083271  0.77345466  0.99715271     0.24900
C2459       C  0.71159933  0.75093636  0.99435545    -0.18900
C2460       C  0.68897054  0.75772132  0.99302371    -0.07800
C2461       C  0.76363433  0.76543870  0.99828910    -0.14200
C2462       C  0.77879312  0.75385492  0.99869934    -0.14000
C2463       C  0.79143727  0.73463815  0.99850411     0.24800
C2464       C  0.77431583  0.70549104  0.00312125    -0.19400
C2465       C  0.78351841  0.68475241  0.00117359    -0.07800
C2466       C  0.81020962  0.69288145  0.99469894    -0.03900
C2467       C  0.82832024  0.72262759  0.99072504    -0.09200
C2468       C  0.81882653  0.74338619  0.99253512    -0.16900
H2469       H  0.72992395  0.83288872  0.99849572     0.11300
H2470       H  0.76984154  0.82070467  0.00081832     0.10600
H2471       H  0.70626638  0.72799449  0.99313893     0.10500
H2472       H  0.66664076  0.73970266  0.99078805     0.11000
H2473       H  0.75304233  0.69832973  0.00768302     0.11100
H2474       H  0.76911337  0.66190481  0.00425214     0.11100
H2475       H  0.84870312  0.72923694  0.98551630     0.11200
H2476       H  0.83215474  0.76578220  0.98879973     0.10000
C2477       C  0.65688806  0.85175370  0.03592023    -0.03800
C2478       C  0.64775431  0.86409498  0.04559833    -0.09600
C2479       C  0.65995873  0.86846450  0.05772498    -0.17200
C2480       C  0.68145702  0.86060207  0.06038678     0.24900
C2481       C  0.69055914  0.84810946  0.05087826    -0.18900
C2482       C  0.67835735  0.84367068  0.03873169    -0.07800
C2483       C  0.69452746  0.86594315  0.07281181    -0.14200
C2484       C  0.70559493  0.87131484  0.08320976    -0.14000
C2485       C  0.71914572  0.87883296  0.09555927     0.24800
C2486       C  0.70669916  0.85850985  0.10553335    -0.19400
C2487       C  0.71979469  0.86607265  0.11754999    -0.07800
C2488       C  0.74545902  0.89418582  0.11974692    -0.03900
C2489       C  0.75775989  0.91441387  0.10963284    -0.09200
C2490       C  0.74472167  0.90675127  0.09764213    -0.16900
H2491       H  0.63121438  0.87046905  0.04381322     0.11300
H2492       H  0.65274161  0.87815000  0.06501111     0.10600
H2493       H  0.70721026  0.84195554  0.05282964     0.10500
H2494       H  0.68588007  0.83407932  0.03153770     0.11000
H2495       H  0.68682749  0.83686443  0.10403333     0.11100
H2496       H  0.70965962  0.85005828  0.12513237     0.11100
H2497       H  0.77752971  0.93620246  0.11096393     0.11200
H2498       H  0.75454629  0.92267185  0.09000162     0.10000
C2499       C  0.45577186  0.45263846  0.15996225    -0.03800
C2500       C  0.43098855  0.42443109  0.15697423    -0.09600
C2501       C  0.40198474  0.41779110  0.15977562    -0.17200
C2502       C  0.39702590  0.43912571  0.16560717     0.24900
C2503       C  0.42146503  0.46728164  0.16870656    -0.18900
C2504       C  0.45070542  0.47401770  0.16590964    -0.07800
C2505       C  0.36662446  0.43147872  0.16819307    -0.14200
C2506       C  0.33992009  0.42052321  0.16939967    -0.14000
C2507       C  0.30772774  0.40207684  0.16961448     0.24800
C2508       C  0.28964858  0.41092798  0.16337821    -0.19400
C2509       C  0.25913902  0.39034443  0.16144122    -0.07800
C2510       C  0.24671407  0.36067362  0.16554995    -0.03900
C2511       C  0.26458044  0.35257054  0.17246060    -0.09200
C2512       C  0.29480145  0.37315944  0.17453284    -0.16900
H2513       H  0.43393446  0.40738163  0.15240895     0.11300
H2514       H  0.38332572  0.39592686  0.15733217     0.10600
H2515       H  0.41793915  0.48400704  0.17323066     0.10500
H2516       H  0.46926804  0.49591675  0.16833705     0.11000
H2517       H  0.29943035  0.43313659  0.15940225     0.11100
H2518       H  0.24589613  0.39690747  0.15590744     0.11100
H2519       H  0.25549518  0.32975710  0.17564321     0.11200
H2520       H  0.30849480  0.36592186  0.17928978     0.10000
C2521       C  0.19532334  0.03048646  0.16324080    -0.03800
C2522       C  0.16850317  0.02924831  0.15979442    -0.09600
C2523       C  0.16713379  0.05532359  0.15890936    -0.17200
C2524       C  0.19251296  0.08308882  0.16136381     0.24900
C2525       C  0.21967358  0.08480098  0.16423975    -0.18900
C2526       C  0.22110890  0.05863786  0.16517399    -0.07800
C2527       C  0.18995775  0.10941522  0.16167461    -0.14200
C2528       C  0.18651390  0.13066270  0.16238079    -0.14000
C2529       C  0.18237970  0.15598625  0.16340559     0.24800
C2530       C  0.20620721  0.18459222  0.16076773    -0.19400
C2531       C  0.20235761  0.20927423  0.16158790    -0.07800
C2532       C  0.17454814  0.20573720  0.16507696    -0.03900
C2533       C  0.15075208  0.17691355  0.16786681    -0.09200
C2534       C  0.15467260  0.15216918  0.16702017    -0.16900
H2535       H  0.14814915  0.00802225  0.15827717     0.11300
H2536       H  0.14600365  0.05373196  0.15669029     0.10600
H2537       H  0.23947806  0.10624532  0.16615568     0.10500
H2538       H  0.24203756  0.06039084  0.16789225     0.11000
H2539       H  0.22773819  0.18781146  0.15798390     0.11100
H2540       H  0.22113965  0.23112166  0.15933671     0.11100
H2541       H  0.12904442  0.17343893  0.17048399     0.11200
H2542       H  0.13606366  0.13006741  0.16908936     0.10000
C2543       C  0.87511686  0.01391088  0.16667165    -0.03800
C2544       C  0.90246499  0.01948282  0.17180863    -0.09600
C2545       C  0.92771744  0.04827084  0.17133219    -0.17200
C2546       C  0.92588418  0.07166377  0.16567837     0.24900
C2547       C  0.89878029  0.06627467  0.16059936    -0.18900
C2548       C  0.87360677  0.03768982  0.16109444    -0.07800
C2549       C  0.95164604  0.10126337  0.16495738    -0.14200
C2550       C  0.97264411  0.12638335  0.16417699    -0.14000
C2551       C  0.99802691  0.15623195  0.16354302     0.24800
C2552       C  0.99701209  0.18002417  0.16932277    -0.19400
C2553       C  0.02275433  0.20836059  0.16992772    -0.07800
C2554       C  0.04988144  0.21312604  0.16482910    -0.03900
C2555       C  0.05015726  0.18944793  0.15839366    -0.09200
C2556       C  0.02439964  0.16120731  0.15777470    -0.16900
H2557       H  0.90437497  0.00162594  0.17610119     0.11300
H2558       H  0.94865510  0.05223586  0.17529381     0.10600
H2559       H  0.89712289  0.08417505  0.15618501     0.10500
H2560       H  0.85300664  0.03417858  0.15695142     0.11000
H2561       H  0.97664873  0.17641394  0.17378292     0.11100
H2562       H  0.02179600  0.22601880  0.17500833     0.11100
H2563       H  0.07062797  0.19234271  0.15434399     0.11200
H2564       H  0.02537679  0.14298121  0.15321675     0.10000
C2565       C  0.02035199  0.48158213  0.15148657    -0.03800
C2566       C  0.05105924  0.50112484  0.15359245    -0.09600
C2567       C  0.07140950  0.49106002  0.15184409    -0.17200
C2568       C  0.06123137  0.46158587  0.14780353     0.24900
C2569       C  0.03098022  0.44284709  0.14492645    -0.18900
C2570       C  0.01075389  0.45269500  0.14676209    -0.07800
C2571       C  0.08038310  0.44884833  0.14798181    -0.14200
C2572       C  0.09190846  0.43374374  0.14915699    -0.14000
C2573       C  0.10043484  0.41177238  0.15186775     0.24800
C2574       C  0.08126349  0.38693123  0.15917939    -0.19400
C2575       C  0.08879973  0.36538600  0.16212816    -0.07800
C2576       C  0.11579683  0.36820719  0.15784201    -0.03900
C2577       C  0.13498782  0.39315393  0.15040631    -0.09200
C2578       C  0.12730009  0.41478395  0.14741816    -0.16900
H2579       H  0.05898438  0.52333950  0.15737134     0.11300
H2580       H  0.09474841  0.50575552  0.15419647     0.10600
H2581       H  0.02271611  0.42000979  0.14185532     0.10500
H2582       H  0.98723776  0.43715625  0.14503797     0.11000
H2583       H  0.06039854  0.38423390  0.16266603     0.11100
H2584       H  0.07346035  0.34655269  0.16786841     0.11100
H2585       H  0.15583161  0.39590074  0.14689109     0.11200
H2586       H  0.14230758  0.43382805  0.14169770     0.10000
C2587       C  0.16678893  0.57324164  0.87398467    -0.03800
C2588       C  0.15152108  0.55688139  0.88477374    -0.09600
C2589       C  0.16721069  0.55475642  0.89504054    -0.17200
C2590       C  0.19841639  0.56879192  0.89469096     0.24900
C2591       C  0.21399415  0.58701604  0.88438462    -0.18900
C2592       C  0.19825261  0.58941977  0.87410528    -0.07800
C2593       C  0.21351114  0.56141511  0.90424501    -0.14200
C2594       C  0.22216249  0.55098487  0.91225242    -0.14000
C2595       C  0.22738566  0.53460643  0.92195809     0.24800
C2596       C  0.24756691  0.54953606  0.93185507    -0.19400
C2597       C  0.24884282  0.53341745  0.94221695    -0.07800
C2598       C  0.22962083  0.50222635  0.94285847    -0.03900
C2599       C  0.21080240  0.48730797  0.93251897    -0.09200
C2600       C  0.20978165  0.50335993  0.92215250    -0.16900
H2601       H  0.12731596  0.54404230  0.88490085     0.11300
H2602       H  0.15484370  0.54061650  0.90293166     0.10600
H2603       H  0.23813711  0.59794967  0.88396118     0.10500
H2604       H  0.21056854  0.60171923  0.86582612     0.11000
H2605       H  0.26122414  0.57370741  0.93186835     0.11100
H2606       H  0.26315676  0.54556753  0.95013433     0.11100
H2607       H  0.19564425  0.46334239  0.93276999     0.11200
H2608       H  0.19406050  0.49148271  0.91458504     0.10000
C2609       C  0.25612358  0.38889519  0.98644274    -0.03800
C2610       C  0.23758632  0.35878608  0.98984651    -0.09600
C2611       C  0.24748638  0.33832514  0.98813315    -0.17200
C2612       C  0.27572232  0.34779778  0.98284315     0.24900
C2613       C  0.29314535  0.37723080  0.97861802    -0.18900
C2614       C  0.28348164  0.39761085  0.98042107    -0.07800
C2615       C  0.28897480  0.32916721  0.98315490    -0.14200
C2616       C  0.30453128  0.31815165  0.98421302    -0.14000
C2617       C  0.32702973  0.31012003  0.98638398     0.24800
C2618       C  0.35305563  0.33015848  0.99292657    -0.19400
C2619       C  0.37536249  0.32322749  0.99510253    -0.07800
C2620       C  0.37208967  0.29600506  0.99079036    -0.03900
C2621       C  0.34585101  0.27588931  0.98420505    -0.09200
C2622       C  0.32347647  0.28296125  0.98199400    -0.16900
H2623       H  0.21664186  0.35167540  0.99467948     0.11300
H2624       H  0.23387957  0.31564799  0.99153622     0.10600
H2625       H  0.31504981  0.38492663  0.97457990     0.10500
H2626       H  0.29821327  0.42072204  0.97775781     0.11000
H2627       H  0.35614432  0.35125745  0.99636168     0.11100
H2628       H  0.39516421  0.33922315  0.00024058     0.11100
H2629       H  0.34267148  0.25479683  0.98074402     0.11200
H2630       H  0.30347563  0.26729213  0.97687834     0.10000
C2631       C  0.20685040  0.53536233  0.98630210    -0.03800
C2632       C  0.18440155  0.53964950  0.98107404    -0.09600
C2633       C  0.18700386  0.56781976  0.98146586    -0.17200
C2634       C  0.21192426  0.59201211  0.98715255     0.24900
C2635       C  0.23369529  0.58768351  0.99287846    -0.18900
C2636       C  0.23121195  0.55957591  0.99246295    -0.07800
C2637       C  0.21586803  0.62152162  0.98657650    -0.14200
C2638       C  0.21948240  0.64632727  0.98580183    -0.14000
C2639       C  0.22355563  0.67585936  0.98495027     0.24800
C2640       C  0.25053458  0.69980444  0.98051406    -0.19400
C2641       C  0.25473283  0.72866737  0.98011244    -0.07800
C2642       C  0.23197701  0.73389842  0.98419468    -0.03900
C2643       C  0.20475075  0.70953262  0.98840516    -0.09200
C2644       C  0.20060263  0.68076534  0.98876850    -0.16900
H2645       H  0.16554419  0.52163071  0.97614558     0.11300
H2646       H  0.17002347  0.57092927  0.97699682     0.10600
H2647       H  0.25305710  0.60624066  0.99732812     0.10500
H2648       H  0.24895117  0.55711420  0.99654712     0.11000
H2649       H  0.26845543  0.69623724  0.97752204     0.11100
H2650       H  0.27597278  0.74694327  0.97688209     0.11100
H2651       H  0.18675124  0.71273814  0.99161417     0.11200
H2652       H  0.17961251  0.66240971  0.99218800     0.10000
C2653       C  0.53744734  0.71832963  0.98855421    -0.03800
C2654       C  0.51369110  0.71810209  0.99509496    -0.09600
C2655       C  0.48522628  0.69252816  0.99504569    -0.17200
C2656       C  0.48014304  0.66691552  0.98846303     0.24900
C2657       C  0.50394354  0.66638451  0.98250979    -0.18900
C2658       C  0.53245863  0.69186546  0.98259711    -0.07800
C2659       C  0.45031806  0.64169531  0.98729612    -0.14200
C2660       C  0.42544960  0.62045490  0.98612883    -0.14000
C2661       C  0.39617066  0.59432512  0.98514419     0.24800
C2662       C  0.39188663  0.56667289  0.98892919    -0.19400
C2663       C  0.36333186  0.54139913  0.98874454    -0.07800
C2664       C  0.33853220  0.54340420  0.98477966    -0.03900
C2665       C  0.34313551  0.57114264  0.98063027    -0.09200
C2666       C  0.37184597  0.59648846  0.98082449    -0.16900
H2667       H  0.51675876  0.73809907  0.99975568     0.11300
H2668       H  0.46697158  0.69310105  0.99974952     0.10600
H2669       H  0.50024390  0.64662441  0.97741486     0.10500
H2670       H  0.55012917  0.69134217  0.97736461     0.11000
H2671       H  0.41056033  0.56474369  0.99225821     0.11100
H2672       H  0.36062837  0.52041163  0.99199403     0.11100
H2673       H  0.32450942  0.57340311  0.97754081     0.11200
H2674       H  0.37497183  0.61783079  0.97784221     0.10000
C2675       C  0.11618598  0.38011280  0.99511720    -0.03800
C2676       C  0.10947307  0.35291665  0.00081816    -0.09600
C2677       C  0.07962422  0.33066743  0.00309445    -0.17200
C2678       C  0.05625337  0.33541659  0.99970163     0.24900
C2679       C  0.06290524  0.36264922  0.99430744    -0.18900
C2680       C  0.09248487  0.38475613  0.99204651    -0.07800
C2681       C  0.02520997  0.31266505  0.00127331    -0.14200
C2682       C  0.99821550  0.29770352  0.00136365    -0.14000
C2683       C  0.96646610  0.28613481  0.00021104     0.24800
C2684       C  0.95604946  0.30609963  0.00157436    -0.19400
C2685       C  0.92643096  0.29706970  0.99874586    -0.07800
C2686       C  0.90649546  0.26776663  0.99457711    -0.03900
C2687       C  0.91651108  0.24719395  0.99382628    -0.09200
C2688       C  0.94651681  0.25644821  0.99652979    -0.16900
H2689       H  0.12720072  0.34871552  0.00336007     0.11300
H2690       H  0.07479649  0.30972053  0.00732587     0.10600
H2691       H  0.04509675  0.36668008  0.99166516     0.10500
H2692       H  0.09670676  0.40537740  0.98768750     0.11000
H2693       H  0.97119082  0.32912066  0.00433919     0.11100
H2694       H  0.91928572  0.31334437  0.99944468     0.11100
H2695       H  0.90165903  0.22458543  0.99050691     0.11200
H2696       H  0.95435593  0.24082735  0.99531904     0.10000
C2697       C  0.22149916  0.41698087  0.03399577    -0.03800
C2698       C  0.19162177  0.39645791  0.03724078    -0.09600
C2699       C  0.18447928  0.38387652  0.04930520    -0.17200
C2700       C  0.20703886  0.39161007  0.05827389     0.24900
C2701       C  0.23679923  0.41187949  0.05514072    -0.18900
C2702       C  0.24401495  0.42448280  0.04309533    -0.07800
C2703       C  0.19975794  0.37864698  0.07067283    -0.14200
C2704       C  0.19437381  0.36784162  0.08107686    -0.14000
C2705       C  0.18906565  0.35493483  0.09347339     0.24800
C2706       C  0.19743596  0.33386386  0.09620208    -0.19400
C2707       C  0.19327441  0.32192125  0.10832914    -0.07800
C2708       C  0.18063383  0.33090303  0.11792638    -0.03900
C2709       C  0.17192482  0.35185245  0.11503816    -0.09200
C2710       C  0.17617461  0.36381147  0.10288477    -0.16900
H2711       H  0.17375201  0.39006092  0.03046464     0.11300
H2712       H  0.16137323  0.36811153  0.05163302     0.10600
H2713       H  0.25444510  0.41793968  0.06200852     0.10500
H2714       H  0.26724214  0.44009525  0.04092731     0.11000
H2715       H  0.20740285  0.32682320  0.08897483     0.11100
H2716       H  0.20007418  0.30572828  0.11018079     0.11100
H2717       H  0.16208112  0.35921350  0.12218214     0.11200
H2718       H  0.16961889  0.38012939  0.10085802     0.10000
C2719       C  0.50103535  0.23711486  0.54146977    -0.03800
C2720       C  0.48730970  0.21926456  0.55213547    -0.09600
C2721       C  0.50448566  0.21835712  0.56207235    -0.17200
C2722       C  0.53571818  0.23516458  0.56154474     0.24900
C2723       C  0.54961514  0.25478430  0.55140564    -0.18900
C2724       C  0.53232687  0.25591377  0.54143758    -0.07800
C2725       C  0.55269360  0.22908817  0.57067052    -0.14200
C2726       C  0.56222186  0.21869551  0.57831699    -0.14000
C2727       C  0.56735282  0.20111072  0.58746457     0.24800
C2728       C  0.58744245  0.21460780  0.59753191    -0.19400
C2729       C  0.58810642  0.19707322  0.60746633    -0.07800
C2730       C  0.56835765  0.16590616  0.60750564    -0.03900
C2731       C  0.54984114  0.15246874  0.59692821    -0.09200
C2732       C  0.54941472  0.16991073  0.58700354    -0.16900
H2733       H  0.46329930  0.20440569  0.55238791     0.11300
H2734       H  0.49338956  0.20307499  0.56982094     0.10600
H2735       H  0.57376980  0.26786690  0.55083916     0.10500
H2736       H  0.54353423  0.26945747  0.53324702     0.11000
H2737       H  0.60140220  0.23872419  0.59804905     0.11100
H2738       H  0.60227299  0.20811439  0.61556318     0.11100
H2739       H  0.53432066  0.12856921  0.59668977     0.11200
H2740       H  0.53377395  0.15912237  0.57929689     0.10000
C2741       C  0.38330064  0.25884483  0.49683714    -0.03800
C2742       C  0.35248652  0.23775161  0.49690530    -0.09600
C2743       C  0.33163729  0.24696188  0.49918701    -0.17200
C2744       C  0.34147576  0.27721169  0.50161503     0.24900
C2745       C  0.37215058  0.29785155  0.50222989    -0.18900
C2746       C  0.39283486  0.28882334  0.49982501    -0.07800
C2747       C  0.32096609  0.28834054  0.50226203    -0.14200
C2748       C  0.30866560  0.30285073  0.50174919    -0.14000
C2749       C  0.30056595  0.32547102  0.49990697     0.24800
C2750       C  0.32293274  0.35407258  0.49627757    -0.19400
C2751       C  0.31608606  0.37631195  0.49382817    -0.07800
C2752       C  0.28659791  0.37054389  0.49496863    -0.03900
C2753       C  0.26414225  0.34185478  0.49886056    -0.09200
C2754       C  0.27109532  0.31940125  0.50128122    -0.16900
H2755       H  0.34453831  0.21458588  0.49452489     0.11300
H2756       H  0.30795757  0.23074986  0.49860369     0.10600
H2757       H  0.38013814  0.32128797  0.50406413     0.10500
H2758       H  0.41641527  0.30556186  0.49990671     0.11000
H2759       H  0.34579924  0.35914778  0.49517941     0.11100
H2760       H  0.33403050  0.39807497  0.49092169     0.11100
H2761       H  0.24123661  0.33666638  0.49983514     0.11200
H2762       H  0.25351276  0.29734207  0.50407842     0.10000
C2763       C  0.25956835  0.90660720  0.48513138    -0.03800
C2764       C  0.28898428  0.92700385  0.48130428    -0.09600
C2765       C  0.29809085  0.95696665  0.47924444    -0.17200
C2766       C  0.27804720  0.96715173  0.48104813     0.24900
C2767       C  0.24816180  0.94665705  0.48410963    -0.18900
C2768       C  0.23886000  0.91638683  0.48603748    -0.07800
C2769       C  0.28964610  0.99899940  0.48137342    -0.14200
C2770       C  0.30396060  0.02578281  0.48292731    -0.14000
C2771       C  0.32565953  0.05642404  0.48605581     0.24800
C2772       C  0.32059339  0.08000157  0.48354295    -0.19400
C2773       C  0.34236054  0.10951697  0.48672588    -0.07800
C2774       C  0.36936985  0.11566670  0.49247251    -0.03900
C2775       C  0.37401898  0.09171514  0.49496597    -0.09200
C2776       C  0.35241009  0.06247014  0.49178312    -0.16900
H2777       H  0.30535786  0.92001980  0.48047938     0.11300
H2778       H  0.32126316  0.97253187  0.47692108     0.10600
H2779       H  0.23247543  0.95429794  0.48561965     0.10500
H2780       H  0.21615838  0.90115981  0.48907450     0.11000
H2781       H  0.29994522  0.07560886  0.47912123     0.11100
H2782       H  0.33812177  0.12745150  0.48466519     0.11100
H2783       H  0.39448350  0.09551458  0.49936326     0.11200
H2784       H  0.35662573  0.04447599  0.49379131     0.10000
C2785       C  0.16719635  0.97312860  0.20688715    -0.03800
C2786       C  0.14819371  0.98508284  0.20721715    -0.09600
C2787       C  0.14972267  0.00346524  0.21733993    -0.17200
C2788       C  0.16995010  0.00966235  0.22727492     0.24900
C2789       C  0.18709547  0.99582545  0.22743244    -0.18900
C2790       C  0.18581765  0.97780987  0.21732732    -0.07800
C2791       C  0.17606645  0.03249463  0.23662976    -0.14200
C2792       C  0.18637513  0.05209663  0.24455194    -0.14000
C2793       C  0.20360446  0.07415100  0.25414016     0.24800
C2794       C  0.23485110  0.08859289  0.25370395    -0.19400
C2795       C  0.25199461  0.10536654  0.26404006    -0.07800
C2796       C  0.23816061  0.10824309  0.27494694    -0.03900
C2797       C  0.20692885  0.09571025  0.27495045    -0.09200
C2798       C  0.18971163  0.07852472  0.26463253    -0.16900
H2799       H  0.13412700  0.98237361  0.19918192     0.11300
H2800       H  0.13639670  0.01411013  0.21706275     0.10600
H2801       H  0.20284909  0.00040986  0.23502726     0.10500
H2802       H  0.20090660  0.96914570  0.21727155     0.11000
H2803       H  0.24591367  0.08537563  0.24567465     0.11100
H2804       H  0.27596224  0.11460675  0.26381299     0.11100
H2805       H  0.19564435  0.09708807  0.28332153     0.11200
H2806       H  0.16556161  0.06733505  0.26514742     0.10000
C2807       C  0.44779863  0.45348725  0.32493404    -0.03800
C2808       C  0.41940157  0.42921622  0.32798285    -0.09600
C2809       C  0.41199894  0.39993597  0.32518287    -0.17200
C2810       C  0.43274984  0.39425715  0.31928150     0.24900
C2811       C  0.46101510  0.41820282  0.31607023    -0.18900
C2812       C  0.46852803  0.44768330  0.31888154    -0.07800
C2813       C  0.42460669  0.36364165  0.31686277    -0.14200
C2814       C  0.41366647  0.33688715  0.31587705    -0.14000
C2815       C  0.39545929  0.30469633  0.31597798     0.24800
C2816       C  0.40461493  0.28725622  0.32253267    -0.19400
C2817       C  0.38429285  0.25681808  0.32470473    -0.07800
C2818       C  0.35460166  0.24388739  0.32051502    -0.03900
C2819       C  0.34615616  0.26109841  0.31334802    -0.09200
C2820       C  0.36649133  0.29122719  0.31103115    -0.16900
H2821       H  0.40286315  0.43278309  0.33263105     0.11300
H2822       H  0.39005786  0.38163564  0.32771621     0.10600
H2823       H  0.47726563  0.41409838  0.31148257     0.10500
H2824       H  0.49051661  0.46586473  0.31636537     0.11000
H2825       H  0.42687659  0.29749386  0.32653048     0.11100
H2826       H  0.39110473  0.24401505  0.33039859     0.11100
H2827       H  0.32332746  0.25154038  0.31007133     0.11200
H2828       H  0.35904403  0.30444541  0.30602695     0.10000
C2829       C  0.47604457  0.01767410  0.32661074    -0.03800
C2830       C  0.44609403  0.00895772  0.32912370    -0.09600
C2831       C  0.43766145  0.03026179  0.33098210    -0.17200
C2832       C  0.45889378  0.06074771  0.33033487     0.24900
C2833       C  0.48911071  0.06983009  0.32844168    -0.18900
C2834       C  0.49771282  0.04834061  0.32668048    -0.07800
C2835       C  0.44839404  0.08175265  0.33049802    -0.14200
C2836       C  0.43393518  0.09403714  0.32973386    -0.14000
C2837       C  0.41128277  0.10201583  0.32785729     0.24800
C2838       C  0.41567696  0.13001750  0.33146251    -0.19400
C2839       C  0.39283228  0.13663893  0.32963861    -0.07800
C2840       C  0.36535590  0.11529418  0.32418155    -0.03900
C2841       C  0.36134546  0.08732111  0.32061955    -0.09200
C2842       C  0.38404472  0.08080326  0.32244579    -0.16900
H2843       H  0.42890708  0.98552217  0.32921910     0.11300
H2844       H  0.41425064  0.02288431  0.33242606     0.10600
H2845       H  0.50577954  0.09337841  0.32786974     0.10500
H2846       H  0.52088812  0.05566364  0.32468540     0.11000
H2847       H  0.43663925  0.14664861  0.33568230     0.11100
H2848       H  0.39668053  0.15840413  0.33245696     0.11100
H2849       H  0.34059163  0.07033415  0.31638476     0.11200
H2850       H  0.38028778  0.05904361  0.31963688     0.10000
C2851       C  0.40503420  0.20911049  0.45119998    -0.03800
C2852       C  0.41264072  0.22877587  0.44093279    -0.09600
C2853       C  0.39858140  0.21847121  0.42925684    -0.17200
C2854       C  0.37674472  0.18839018  0.42760666     0.24900
C2855       C  0.36916270  0.16844742  0.43768588    -0.18900
C2856       C  0.38323702  0.17872107  0.44942355    -0.07800
C2857       C  0.36208512  0.17863194  0.41555099    -0.14200
C2858       C  0.35146440  0.17383908  0.40508617    -0.14000
C2859       C  0.34056700  0.17161277  0.39240281     0.24800
C2860       C  0.32238888  0.18348635  0.38954518    -0.19400
C2861       C  0.31313098  0.18302360  0.37711955    -0.07800
C2862       C  0.32196368  0.17067276  0.36732781    -0.03900
C2863       C  0.34019611  0.15869358  0.37031497    -0.09200
C2864       C  0.34944776  0.15921177  0.38277277    -0.16900
H2865       H  0.42930769  0.25224368  0.44192454     0.11300
H2866       H  0.40461269  0.23408075  0.42151277     0.10600
H2867       H  0.35227899  0.14508463  0.43650715     0.10500
H2868       H  0.37687106  0.16294313  0.45711315     0.11000
H2869       H  0.31557899  0.19336340  0.39690972     0.11100
H2870       H  0.29904372  0.19236152  0.37520355     0.11100
H2871       H  0.34734501  0.14894466  0.36303924     0.11200
H2872       H  0.36373057  0.15017917  0.38487237     0.10000
C2873       C  0.76404892  0.56913103  0.54361781    -0.03800
C2874       C  0.75458599  0.58177435  0.55303830    -0.09600
C2875       C  0.73628147  0.56441831  0.56294162    -0.17200
C2876       C  0.72702661  0.53404082  0.56372327     0.24900
C2877       C  0.73776468  0.52152748  0.55485839    -0.18900
C2878       C  0.75628231  0.53900667  0.54487710    -0.07800
C2879       C  0.70481227  0.51599722  0.57310376    -0.14200
C2880       C  0.68534074  0.50501118  0.58103863    -0.14000
C2881       C  0.66261319  0.49745188  0.59060251     0.24800
C2882       C  0.66066539  0.48041960  0.60120195    -0.19400
C2883       C  0.64228345  0.47797634  0.61143512    -0.07800
C2884       C  0.62605251  0.49296358  0.61124484    -0.03900
C2885       C  0.62659456  0.50825159  0.60022677    -0.09200
C2886       C  0.64461364  0.51035379  0.58998589    -0.16900
H2887       H  0.76001007  0.60481821  0.55238320     0.11300
H2888       H  0.72824942  0.57446791  0.56970701     0.10600
H2889       H  0.73080549  0.49803193  0.55533033     0.10500
H2890       H  0.76277553  0.52844881  0.53770430     0.11000
H2891       H  0.67457843  0.47046537  0.60186953     0.11100
H2892       H  0.64282343  0.46662496  0.61990479     0.11100
H2893       H  0.61458058  0.52025530  0.59986950     0.11200
H2894       H  0.64589079  0.52364460  0.58188757     0.10000
C2895       C  0.90829299  0.68636959  0.49911468    -0.03800
C2896       C  0.92760764  0.67883128  0.50519439    -0.09600
C2897       C  0.95798877  0.69983882  0.50648605    -0.17200
C2898       C  0.96967677  0.72867228  0.50162071     0.24900
C2899       C  0.95027534  0.73699240  0.49624042    -0.18900
C2900       C  0.91960809  0.71596240  0.49508004    -0.07800
C2901       C  0.00176229  0.74763263  0.50065811    -0.14200
C2902       C  0.02837715  0.75872265  0.49902301    -0.14000
C2903       C  0.05864567  0.76612124  0.49624465     0.24800
C2904       C  0.08331006  0.79429348  0.49913268    -0.19400
C2905       C  0.11243194  0.80044496  0.49650030    -0.07800
C2906       C  0.11717986  0.77842892  0.49097150    -0.03900
C2907       C  0.09218395  0.75033860  0.48806836    -0.09200
C2908       C  0.06327820  0.74429835  0.49067934    -0.16900
H2909       H  0.91945558  0.65611154  0.50829915     0.11300
H2910       H  0.97268122  0.69300259  0.51059533     0.10600
H2911       H  0.95905359  0.75914259  0.49232391     0.10500
H2912       H  0.90527112  0.72213367  0.49016057     0.11000
H2913       H  0.08006742  0.81140503  0.50344979     0.11100
H2914       H  0.13117596  0.82230310  0.49884342     0.11100
H2915       H  0.09490884  0.73288555  0.48377628     0.11200
H2916       H  0.04444428  0.72242429  0.48839205     0.10000
C2917       C  0.71136545  0.53690843  0.49940056    -0.03800
C2918       C  0.71238738  0.51279932  0.49375921    -0.09600
C2919       C  0.68659881  0.48463911  0.49287737    -0.17200
C2920       C  0.65947425  0.48019467  0.49758981     0.24900
C2921       C  0.65792144  0.50427253  0.50271520    -0.18900
C2922       C  0.68368308  0.53250474  0.50358865    -0.07800
C2923       C  0.63357107  0.45067955  0.49767360    -0.14200
C2924       C  0.61201712  0.42584932  0.49795020    -0.14000
C2925       C  0.58609837  0.39634226  0.49807487     0.24800
C2926       C  0.55934069  0.39150174  0.49279835    -0.19400
C2927       C  0.53433235  0.36273594  0.49246126    -0.07800
C2928       C  0.53574693  0.33834284  0.49740973    -0.03900
C2929       C  0.56263259  0.34350549  0.50289741    -0.09200
C2930       C  0.58766860  0.37237145  0.50321881    -0.16900
H2931       H  0.73332229  0.51537759  0.49045783     0.11300
H2932       H  0.68800511  0.46614545  0.48886026     0.10600
H2933       H  0.63698360  0.50102712  0.50637832     0.10500
H2934       H  0.68214905  0.55048119  0.50806993     0.11000
H2935       H  0.55789943  0.40991888  0.48880783     0.11100
H2936       H  0.51401133  0.35957678  0.48816162     0.11100
H2937       H  0.56445520  0.32521718  0.50676679     0.11200
H2938       H  0.60831816  0.37593080  0.50734069     0.10000
C2939       C  0.67973407  0.80537506  0.48387427    -0.03800
C2940       C  0.66943900  0.77741770  0.47802425    -0.09600
C2941       C  0.68871660  0.76643740  0.47601102    -0.17200
C2942       C  0.71857197  0.78312881  0.47988306     0.24900
C2943       C  0.72948697  0.81182730  0.48502866    -0.18900
C2944       C  0.71017338  0.82303047  0.48694036    -0.07800
C2945       C  0.73639984  0.76896695  0.48007993    -0.14200
C2946       C  0.74785324  0.75386233  0.48140647    -0.14000
C2947       C  0.75725521  0.73268999  0.48430608     0.24800
C2948       C  0.78599725  0.73836246  0.48129634    -0.19400
C2949       C  0.79471113  0.71767323  0.48457715    -0.07800
C2950       C  0.77470871  0.69108531  0.49090037    -0.03900
C2951       C  0.74588121  0.68566110  0.49378751    -0.09200
C2952       C  0.73729544  0.70623542  0.49052265    -0.16900
H2953       H  0.64599350  0.76331006  0.47566789     0.11300
H2954       H  0.67988276  0.74417029  0.47210264     0.10600
H2955       H  0.75247572  0.82484824  0.48818249     0.10500
H2956       H  0.71845943  0.84435862  0.49167243     0.11000
H2957       H  0.80168104  0.75878411  0.47648965     0.11100
H2958       H  0.81700012  0.72246750  0.48219007     0.11100
H2959       H  0.72985350  0.66549361  0.49865361     0.11200
H2960       H  0.71503349  0.70155281  0.49293423     0.10000
C2961       C  0.90220900  0.83214419  0.27693382    -0.03800
C2962       C  0.92085969  0.86343252  0.27646145    -0.09600
C2963       C  0.91934306  0.87958364  0.26616762    -0.17200
C2964       C  0.89948998  0.86460724  0.25617777     0.24900
C2965       C  0.88260797  0.83331802  0.25616879    -0.18900
C2966       C  0.88389305  0.81721961  0.26645892    -0.07800
C2967       C  0.89367032  0.88093353  0.24666158    -0.14200
C2968       C  0.88470709  0.89164253  0.23892272    -0.14000
C2969       C  0.86959993  0.89990389  0.22973681     0.24800
C2970       C  0.83847710  0.88661743  0.23037469    -0.19400
C2971       C  0.82271129  0.88990747  0.22043560    -0.07800
C2972       C  0.83785445  0.90676237  0.20973339    -0.03900
C2973       C  0.86927987  0.92208428  0.20958033    -0.09200
C2974       C  0.88507896  0.91847823  0.21950673    -0.16900
H2975       H  0.93480013  0.87558014  0.28446885     0.11300
H2976       H  0.93245153  0.90378916  0.26632755     0.10600
H2977       H  0.86715274  0.82140346  0.24852465     0.10500
H2978       H  0.86919942  0.79316796  0.26656442     0.11000
H2979       H  0.82619120  0.87219373  0.23820805     0.11100
H2980       H  0.79850192  0.87758335  0.22070144     0.11100
H2981       H  0.88141033  0.93460292  0.20130857     0.11200
H2982       H  0.90914062  0.92879373  0.21885624     0.10000
C2983       C  0.93367772  0.72282610  0.32158056    -0.03800
C2984       C  0.91319494  0.69187803  0.32194702    -0.09600
C2985       C  0.92292949  0.67141650  0.31974305    -0.17200
C2986       C  0.95307919  0.68174317  0.31696970     0.24900
C2987       C  0.97307356  0.71247826  0.31590260    -0.18900
C2988       C  0.96352044  0.73280873  0.31819790    -0.07800
C2989       C  0.96473429  0.66168696  0.31639686    -0.14200
C2990       C  0.97900044  0.64915493  0.31692148    -0.14000
C2991       C  0.00062384  0.63977802  0.31876293     0.24800
C2992       C  0.02840692  0.66024113  0.32396537    -0.19400
C2993       C  0.04970120  0.65197657  0.32618220    -0.07800
C2994       C  0.04372653  0.62295272  0.32323457    -0.03900
C2995       C  0.01583351  0.60245029  0.31786377    -0.09200
C2996       C  0.99437580  0.61083556  0.31565292    -0.16900
H2997       H  0.89017521  0.68358487  0.32463386     0.11300
H2998       H  0.90723813  0.64767984  0.32067222     0.10600
H2999       H  0.99643353  0.72083230  0.31379922     0.10500
H3000       H  0.97981531  0.75650144  0.31777262     0.11000
H3001       H  0.03359349  0.68268564  0.32640805     0.11100
H3002       H  0.07087563  0.66842239  0.33030284     0.11100
H3003       H  0.01054181  0.57996713  0.31547885     0.11200
H3004       H  0.97294843  0.59475579  0.31160780     0.10000
C3005       C  0.57983616  0.59487499  0.33143090    -0.03800
C3006       C  0.60161570  0.62456214  0.33442485    -0.09600
C3007       C  0.63132395  0.63260269  0.33635498    -0.17200
C3008       C  0.64001274  0.61122779  0.33532466     0.24900
C3009       C  0.61828222  0.58119654  0.33302896    -0.18900
C3010       C  0.58821715  0.57298657  0.33117577    -0.07800
C3011       C  0.67162273  0.62152001  0.33527845    -0.14200
C3012       C  0.69851491  0.63575196  0.33413229    -0.14000
C3013       C  0.72927392  0.65805114  0.33155429     0.24800
C3014       C  0.75328252  0.65574342  0.33624490    -0.19400
C3015       C  0.78286457  0.67855845  0.33389084    -0.07800
C3016       C  0.78864915  0.70397500  0.32689695    -0.03900
C3017       C  0.76430691  0.70577535  0.32215925    -0.09200
C3018       C  0.73500429  0.68306647  0.32445849    -0.16900
H3019       H  0.59589131  0.64192955  0.33476052     0.11300
H3020       H  0.64782661  0.65588736  0.33808341     0.10600
H3021       H  0.62473005  0.56442924  0.33213990     0.10500
H3022       H  0.57198252  0.55001516  0.32879592     0.11000
H3023       H  0.74916830  0.63653135  0.34178603     0.11100
H3024       H  0.80111880  0.67653153  0.33767149     0.11100
H3025       H  0.76785376  0.72486418  0.31667117     0.11200
H3026       H  0.71670355  0.68518964  0.32077816     0.10000
C3027       C  0.89000851  0.74596169  0.36847895    -0.03800
C3028       C  0.91169598  0.75355024  0.37799381    -0.09600
C3029       C  0.90357044  0.74049747  0.38998042    -0.17200
C3030       C  0.87365832  0.71966014  0.39270983     0.24900
C3031       C  0.85189332  0.71200659  0.38333708    -0.18900
C3032       C  0.85996278  0.72499988  0.37132445    -0.07800
C3033       C  0.86545719  0.70594798  0.40506464    -0.14200
C3034       C  0.85927324  0.69448371  0.41540734    -0.14000
C3035       C  0.85286017  0.68078014  0.42777445     0.24800
C3036       C  0.83912876  0.68904522  0.43706976    -0.19400
C3037       C  0.83383446  0.67639113  0.44915825    -0.07800
C3038       C  0.84226861  0.65525765  0.45216685    -0.03900
C3039       C  0.85570124  0.64684121  0.44268910    -0.09200
C3040       C  0.86093010  0.65949383  0.43062321    -0.16900
H3041       H  0.93502720  0.76949702  0.37617685     0.11300
H3042       H  0.92067957  0.74661079  0.39711530     0.10600
H3043       H  0.82866568  0.69589891  0.38529526     0.10500
H3044       H  0.84265061  0.71857287  0.36426719     0.11000
H3045       H  0.83274011  0.70547423  0.43501349     0.11100
H3046       H  0.82343312  0.68342052  0.45617878     0.11100
H3047       H  0.86242046  0.63061621  0.44460764     0.11200
H3048       H  0.87153561  0.65284012  0.42353802     0.10000
C3049       C  0.00881801  0.87429887  0.31809538    -0.03800
C3050       C  0.03406234  0.87205191  0.32099518    -0.09600
C3051       C  0.06278010  0.89670665  0.31976275    -0.17200
C3052       C  0.06680944  0.92399905  0.31560684     0.24900
C3053       C  0.04196367  0.92633067  0.31226261    -0.18900
C3054       C  0.01305481  0.90155457  0.31346508    -0.07800
C3055       C  0.09642047  0.94976567  0.31551057    -0.14200
C3056       C  0.12152396  0.97080595  0.31616899    -0.14000
C3057       C  0.15127200  0.99617421  0.31719144     0.24800
C3058       C  0.15595655  0.02199207  0.32344459    -0.19400
C3059       C  0.18427785  0.04765433  0.32347966    -0.07800
C3060       C  0.20833825  0.04785197  0.31721790    -0.03900
C3061       C  0.20378510  0.02123259  0.31158415    -0.09200
C3062       C  0.17535680  0.99556234  0.31154642    -0.16900
H3063       H  0.03166518  0.85137202  0.32449295     0.11300
H3064       H  0.08184523  0.89465606  0.32234992     0.10600
H3065       H  0.04489262  0.94742132  0.30901785     0.10500
H3066       H  0.99408625  0.90395407  0.31112212     0.11000
H3067       H  0.13749994  0.02261682  0.32792610     0.11100
H3068       H  0.18698709  0.06773487  0.32792006     0.11100
H3069       H  0.22173933  0.02067968  0.30660834     0.11200
H3070       H  0.17195720  0.97558543  0.30674142     0.10000
C3071       C  0.10602998  0.24177248  0.20872492    -0.03800
C3072       C  0.09742374  0.21131759  0.20926419    -0.09600
C3073       C  0.08018054  0.19353257  0.21940870    -0.17200
C3074       C  0.07174922  0.20613594  0.22915689     0.24900
C3075       C  0.08203349  0.23681245  0.22906914    -0.18900
C3076       C  0.09897305  0.25447030  0.21895762    -0.07800
C3077       C  0.05017089  0.18784619  0.23861930    -0.14200
C3078       C  0.03087151  0.17711214  0.24658810    -0.14000
C3079       C  0.00837117  0.17095183  0.25602429     0.24800
C3080       C  0.99487421  0.18841092  0.25614355    -0.19400
C3081       C  0.97691937  0.18679802  0.26627628    -0.07800
C3082       C  0.97199757  0.16754344  0.27645229    -0.03900
C3083       C  0.98378303  0.14842970  0.27589420    -0.09200
C3084       C  0.00210532  0.15028167  0.26573716    -0.16900
H3085       H  0.10213678  0.20080823  0.20144208     0.11300
H3086       H  0.07226666  0.16978729  0.21933414     0.10600
H3087       H  0.07565571  0.24685358  0.23652871     0.10500
H3088       H  0.10518836  0.27779584  0.21882163     0.11000
H3089       H  0.99959302  0.20455547  0.24873270     0.11100
H3090       H  0.96837947  0.20199294  0.26655515     0.11100
H3091       H  0.98086886  0.13391929  0.28376033     0.11200
H3092       H  0.01256724  0.13677632  0.26579813     0.10000
C3093       C  0.82825821  0.13926797  0.32090018    -0.03800
C3094       C  0.81909994  0.16053419  0.32044433    -0.09600
C3095       C  0.78893836  0.15137685  0.31820184    -0.17200
C3096       C  0.76790443  0.12100485  0.31619833     0.24900
C3097       C  0.77732082  0.10010240  0.31605735    -0.18900
C3098       C  0.80713358  0.10909109  0.31841576    -0.07800
C3099       C  0.73623559  0.11012234  0.31539277    -0.14200
C3100       C  0.70923638  0.09574306  0.31580961    -0.14000
C3101       C  0.67816796  0.07344653  0.31769931     0.24800
C3102       C  0.67134101  0.04571239  0.32258603    -0.19400
C3103       C  0.64179154  0.02389896  0.32507655    -0.07800
C3104       C  0.61827974  0.02930326  0.32271611    -0.03900
C3105       C  0.62514543  0.05707082  0.31756664    -0.09200
C3106       C  0.65498531  0.07906654  0.31509217    -0.16900
H3107       H  0.83486205  0.18386119  0.32245631     0.11300
H3108       H  0.78190085  0.16776707  0.31843561     0.10600
H3109       H  0.76133911  0.07656312  0.31457407     0.10500
H3110       H  0.81354269  0.09222245  0.31865754     0.11000
H3111       H  0.68900296  0.04101794  0.32462284     0.11100
H3112       H  0.63744315  0.00280290  0.32896887     0.11100
H3113       H  0.60756043  0.06188465  0.31559458     0.11200
H3114       H  0.65995940  0.10044137  0.31128310     0.10000
C3115       C  0.95521419  0.28302904  0.32470752    -0.03800
C3116       C  0.98108299  0.30772066  0.31974517    -0.09600
C3117       C  0.98720923  0.33677656  0.32202123    -0.17200
C3118       C  0.96771005  0.34181287  0.32932344     0.24900
C3119       C  0.94164289  0.31743628  0.33421231    -0.18900
C3120       C  0.93532914  0.28812622  0.33186992    -0.07800
C3121       C  0.97570760  0.37226901  0.33197265    -0.14200
C3122       C  0.98778455  0.39905548  0.33325363    -0.14000
C3123       C  0.00827548  0.43089193  0.33348182     0.24800
C3124       C  0.99966858  0.45107848  0.32935182    -0.19400
C3125       C  0.02133837  0.48124483  0.32741821    -0.07800
C3126       C  0.05174942  0.49117705  0.32940175    -0.03900
C3127       C  0.05983664  0.47110572  0.33426338    -0.09200
C3128       C  0.03827295  0.44126062  0.33630632    -0.16900
H3129       H  0.99675431  0.30462268  0.31411640     0.11300
H3130       H  0.00744853  0.35541803  0.31819012     0.10600
H3131       H  0.92642849  0.32107239  0.33991899     0.10500
H3132       H  0.91527394  0.26956025  0.33583443     0.11000
H3133       H  0.97653153  0.44325044  0.32703239     0.11100
H3134       H  0.01460021  0.49622299  0.32356374     0.11100
H3135       H  0.08310223  0.47820411  0.33591881     0.11200
H3136       H  0.04526082  0.42589040  0.33943897     0.10000
C3137       C  0.89961376  0.06085388  0.31854572    -0.03800
C3138       C  0.87319122  0.03648594  0.32337262    -0.09600
C3139       C  0.86853855  0.00752620  0.32287486    -0.17200
C3140       C  0.89012655  0.00230312  0.31754450     0.24900
C3141       C  0.91627726  0.02624906  0.31247323    -0.18900
C3142       C  0.92101236  0.05536781  0.31295903    -0.07800
C3143       C  0.88566560  0.97249890  0.31775462    -0.14200
C3144       C  0.88155023  0.94745327  0.31846801    -0.14000
C3145       C  0.87741070  0.91785201  0.31945684     0.24800
C3146       C  0.89693610  0.91317030  0.32688132    -0.19400
C3147       C  0.89490088  0.88523476  0.32691198    -0.07800
C3148       C  0.87317141  0.86148146  0.31954159    -0.03900
C3149       C  0.85253471  0.86591728  0.31268066    -0.09200
C3150       C  0.85475681  0.89396421  0.31259520    -0.16900
H3151       H  0.85622702  0.03981183  0.32774979     0.11300
H3152       H  0.84824551  0.98923597  0.32683804     0.10600
H3153       H  0.93319222  0.02249475  0.30832543     0.10500
H3154       H  0.94159371  0.07359575  0.30918046     0.11000
H3155       H  0.91443307  0.93141331  0.33230156     0.11100
H3156       H  0.91113548  0.88259257  0.33228766     0.11100
H3157       H  0.83576878  0.84824693  0.30679272     0.11200
H3158       H  0.83944541  0.89726713  0.30683828     0.10000
C3159       C  0.02571325  0.19394009  0.32133082    -0.03800
C3160       C  0.02461536  0.16752264  0.32530990    -0.09600
C3161       C  0.05065277  0.16595966  0.32596521    -0.17200
C3162       C  0.07821157  0.19074713  0.32272163     0.24900
C3163       C  0.07984522  0.21768701  0.31949293    -0.18900
C3164       C  0.05377006  0.21933236  0.31883468    -0.07800
C3165       C  0.10431107  0.18779129  0.32193499    -0.14200
C3166       C  0.12554805  0.18436638  0.32094156    -0.14000
C3167       C  0.15102017  0.18041645  0.31990187     0.24800
C3168       C  0.17955565  0.20431490  0.32269364    -0.19400
C3169       C  0.20423797  0.20039627  0.32229448    -0.07800
C3170       C  0.20080246  0.17245943  0.31905766    -0.03900
C3171       C  0.17212385  0.14868854  0.31595424    -0.09200
C3172       C  0.14736941  0.15265717  0.31640453    -0.16900
H3173       H  0.00345220  0.14754378  0.32733340     0.11300
H3174       H  0.04911411  0.14503614  0.32853363     0.10600
H3175       H  0.10109932  0.23707118  0.31700590     0.10500
H3176       H  0.05543266  0.23995406  0.31570161     0.11000
H3177       H  0.18268510  0.22590141  0.32537561     0.11100
H3178       H  0.22598659  0.21919156  0.32471863     0.11100
H3179       H  0.16872105  0.12689202  0.31349359     0.11200
H3180       H  0.12535477  0.13397929  0.31421318     0.10000
C3181       C  0.82625575  0.29280194  0.54147624    -0.03800
C3182       C  0.84369432  0.29541490  0.55207910    -0.09600
C3183       C  0.84431132  0.31202154  0.56261559    -0.17200
C3184       C  0.82771733  0.32646034  0.56267569     0.24900
C3185       C  0.80850520  0.32208631  0.55255428    -0.18900
C3186       C  0.80756900  0.30508047  0.54202793    -0.07800
C3187       C  0.83396330  0.34876736  0.57226443    -0.14200
C3188       C  0.84448092  0.36869241  0.58001624    -0.14000
C3189       C  0.86226922  0.39195898  0.58904894     0.24800
C3190       C  0.84899923  0.39917438  0.59893344    -0.19400
C3191       C  0.86675001  0.41844954  0.60867806    -0.07800
C3192       C  0.89789038  0.43034172  0.60868929    -0.03900
C3193       C  0.91108375  0.42448037  0.59828841    -0.09200
C3194       C  0.89341130  0.40548909  0.58855890    -0.16900
H3195       H  0.85841585  0.28632093  0.55185620     0.11300
H3196       H  0.85930972  0.31526017  0.57035966     0.10600
H3197       H  0.79569346  0.33328725  0.55244581     0.10500
H3198       H  0.79435186  0.30383886  0.53389126     0.11000
H3199       H  0.82491255  0.38878384  0.59944471     0.11100
H3200       H  0.85591403  0.42213737  0.61666078     0.11100
H3201       H  0.93496163  0.43317208  0.59804819     0.11200
H3202       H  0.90397469  0.40011617  0.58097335     0.10000
C3203       C  0.69569779  0.94797104  0.49518267    -0.03800
C3204       C  0.68917237  0.97096256  0.49694951    -0.09600
C3205       C  0.71187944  0.00031273  0.49927928    -0.17200
C3206       C  0.74170241  0.00753167  0.49986439     0.24900
C3207       C  0.74856378  0.98473002  0.49851311    -0.18900
C3208       C  0.72563653  0.95502406  0.49625143    -0.07800
C3209       C  0.76460123  0.03874036  0.50110414    -0.14200
C3210       C  0.77917029  0.06580837  0.50140092    -0.14000
C3211       C  0.79044294  0.09766860  0.50088757     0.24800
C3212       C  0.81863423  0.11764542  0.49577070    -0.19400
C3213       C  0.82702364  0.14763156  0.49358707    -0.07800
C3214       C  0.80702821  0.15767382  0.49629354    -0.03900
C3215       C  0.77946089  0.13783616  0.50195996    -0.09200
C3216       C  0.77133849  0.10819067  0.50429390    -0.16900
H3217       H  0.66641610  0.96639752  0.49631210     0.11300
H3218       H  0.70617598  0.01761388  0.50031719     0.10600
H3219       H  0.77157098  0.98997570  0.49892588     0.10500
H3220       H  0.73139095  0.93784740  0.49492998     0.11000
H3221       H  0.83356564  0.10978979  0.49298638     0.11100
H3222       H  0.84822734  0.16238886  0.48907037     0.11100
H3223       H  0.76365837  0.14501421  0.50413644     0.11200
H3224       H  0.74946015  0.09306607  0.50820774     0.10000
C3225       C  0.52610317  0.20509108  0.49774994    -0.03800
C3226       C  0.55152905  0.23056008  0.49290071    -0.09600
C3227       C  0.57891673  0.23165942  0.49213506    -0.17200
C3228       C  0.58132007  0.20733222  0.49612940     0.24900
C3229       C  0.55588456  0.18129834  0.50033424    -0.18900
C3230       C  0.52839790  0.18012502  0.50111701    -0.07800
C3231       C  0.61022255  0.20989401  0.49659507    -0.14200
C3232       C  0.63488557  0.21316788  0.49726440    -0.14000
C3233       C  0.66451002  0.21750905  0.49793989     0.24800
C3234       C  0.66881074  0.19328835  0.49598978    -0.19400
C3235       C  0.69766330  0.19765009  0.49599598    -0.07800
C3236       C  0.72263864  0.22632943  0.49802820    -0.03900
C3237       C  0.71806818  0.25043607  0.50031967    -0.09200
C3238       C  0.68915332  0.24604130  0.50022481    -0.16900
H3239       H  0.55064599  0.25021381  0.49022677     0.11300
H3240       H  0.59844783  0.25189394  0.48883586     0.10600
H3241       H  0.55750912  0.16230277  0.50342472     0.10500
H3242       H  0.50935167  0.16024187  0.50493035     0.11000
H3243       H  0.64989634  0.17110803  0.49425255     0.11100
H3244       H  0.70044032  0.17862615  0.49423755     0.11100
H3245       H  0.73686186  0.27279853  0.50181741     0.11200
H3246       H  0.68605857  0.26495979  0.50173737     0.10000
C3247       C  0.83610797  0.53138392  0.50151684    -0.03800
C3248       C  0.86242031  0.53325512  0.49682867    -0.09600
C3249       C  0.86534950  0.50793644  0.49635369    -0.17200
C3250       C  0.84211673  0.48034369  0.50057684     0.24900
C3251       C  0.81621382  0.47840241  0.50562168    -0.18900
C3252       C  0.81320270  0.50374314  0.50609822    -0.07800
C3253       C  0.84469022  0.45400178  0.49945670    -0.14200
C3254       C  0.84705998  0.43208454  0.49847401    -0.14000
C3255       C  0.84985066  0.40581021  0.49775888     0.24800
C3256       C  0.82583291  0.37855269  0.49355072    -0.19400
C3257       C  0.82761357  0.35253516  0.49391418    -0.07800
C3258       C  0.85350287  0.35335821  0.49851452    -0.03900
C3259       C  0.87796840  0.38113031  0.50222959    -0.09200
C3260       C  0.87610669  0.40711058  0.50186564    -0.16900
H3261       H  0.88052329  0.55415026  0.49322799     0.11300
H3262       H  0.88555191  0.50979039  0.49248067     0.10600
H3263       H  0.79811699  0.45718901  0.50897683     0.10500
H3264       H  0.79269094  0.50152910  0.50976238     0.11000
H3265       H  0.80538939  0.37722321  0.49033411     0.11100
H3266       H  0.80826512  0.33159085  0.49103066     0.11100
H3267       H  0.89812422  0.38262343  0.50591342     0.11200
H3268       H  0.89485902  0.42807120  0.50514404     0.10000
C3269       C  0.94646145  0.28897410  0.49191936    -0.03800
C3270       C  0.97059369  0.31687273  0.49570940    -0.09600
C3271       C  0.00004906  0.32365405  0.49393849    -0.17200
C3272       C  0.00606443  0.30277081  0.48835143     0.24900
C3273       C  0.98225971  0.27484659  0.48457135    -0.18900
C3274       C  0.95262137  0.26795798  0.48635393    -0.07800
C3275       C  0.03683514  0.31081311  0.48644579    -0.14200
C3276       C  0.06365527  0.32218318  0.48550838    -0.14000
C3277       C  0.09576673  0.34152904  0.48532338     0.24800
C3278       C  0.11508290  0.33157523  0.48923814    -0.19400
C3279       C  0.14576330  0.35213703  0.49090248    -0.07800
C3280       C  0.15712160  0.38279209  0.48884103    -0.03900
C3281       C  0.13780509  0.39219229  0.48429420    -0.09200
C3282       C  0.10747954  0.37174842  0.48250631    -0.16900
H3283       H  0.96676194  0.33354933  0.50007583     0.11300
H3284       H  0.01821786  0.34533659  0.49690748     0.10600
H3285       H  0.98657741  0.25846999  0.48022749     0.10500
H3286       H  0.93457403  0.24625586  0.48336617     0.11000
H3287       H  0.10626956  0.30826113  0.49153845     0.11100
H3288       H  0.16013069  0.34442811  0.49456874     0.11100
H3289       H  0.14599628  0.41569527  0.48264703     0.11200
H3290       H  0.09286924  0.37981035  0.47952210     0.10000
C3291       C  0.84698511  0.22702825  0.44951420    -0.03800
C3292       C  0.82702361  0.21829902  0.43924048    -0.09600
C3293       C  0.83618210  0.21577361  0.42708501    -0.17200
C3294       C  0.86535160  0.22179813  0.42500506     0.24900
C3295       C  0.88536048  0.23042186  0.43515102    -0.18900
C3296       C  0.87631003  0.23312108  0.44731089    -0.07800
C3297       C  0.87439251  0.21811374  0.41255578    -0.14200
C3298       C  0.88120745  0.21335937  0.40226322    -0.14000
C3299       C  0.88806137  0.20510997  0.39023543     0.24800
C3300       C  0.89298746  0.22276212  0.37952504    -0.19400
C3301       C  0.89817111  0.21366851  0.36778266    -0.07800
C3302       C  0.89824833  0.18664187  0.36659721    -0.03900
C3303       C  0.89376364  0.16937450  0.37746450    -0.09200
C3304       C  0.88878766  0.17860108  0.38918221    -0.16900
H3305       H  0.80434236  0.21354430  0.44057351     0.11300
H3306       H  0.82044413  0.20895061  0.41932102     0.10600
H3307       H  0.90792767  0.23492105  0.43367717     0.10500
H3308       H  0.89220418  0.23973630  0.45499813     0.11000
H3309       H  0.89243907  0.24331496  0.38021225     0.11100
H3310       H  0.90148962  0.22747095  0.35959941     0.11100
H3311       H  0.89389914  0.14860496  0.37690764     0.11200
H3312       H  0.88506619  0.16479563  0.39740866     0.10000
loop_ 
_geom_bond_atom_site_label_1 
_geom_bond_atom_site_label_2 
_geom_bond_distance 
_geom_bond_site_symmetry_2 
_ccdc_geom_bond_type 
O1           Ni7   1.932       .  S
O1           C22   1.274       .  A
O2          Ni25   1.910       .  S
O2           C11   1.268       .  A
O3           Ni7   1.905       .  S
O3          Ni25   1.905       .  S
O3          Ni19   1.910       .  S
O3           H26   0.966       .  S
C4           O21   1.275       .  A
C4           O13   1.278       .  A
C4         C3291   1.486       .  S
O5          Ni24   1.929       .  S
O5           C11   1.271       .  A
O6          Ni24   1.901       .  S
O6            C8   1.268       .  A
Ni7          O10   1.917       .  S
Ni7          O12   1.920       .  S
C8           O18   1.276       .  A
C8         C3214   1.481       .  S
O9          Ni25   1.931       .  S
O9           C15   1.280       .  A
O10          C15   1.277       .  A
C11        C3236   1.480       .  S
O12          C14   1.271       .  A
O13         Ni24   1.930       .  S
C14          O20   1.269       .  A
C14        C3258   1.488       .  S
C15        C3181   1.477       .  S
H16          O17   0.966       .  S
O17         Ni25   1.918       .  S
O17         Ni19   1.909       .  S
O17         Ni24   1.905       .  S
O18         Ni19   1.944       .  S
Ni19         O23   1.913       .  S
Ni19         O21   1.916       .  S
O20         Ni25   1.918       .  S
C22          O23   1.270       .  A
C22        C3269   1.487       .  S
O27         Ni33   1.929       .  S
O27          C48   1.273       .  A
O28         Ni51   1.918       .  S
O28          C37   1.271       .  A
O29         Ni33   1.904       .  S
O29         Ni51   1.907       .  S
O29         Ni45   1.905       .  S
O29          H52   0.966       .  S
C30          O47   1.273       .  A
C30          O39   1.277       .  A
C30        C3302   1.483       .  S
O31         Ni50   1.927       .  S
O31          C37   1.271       .  A
O32         Ni50   1.901       .  S
O32          C34   1.269       .  A
Ni33         O36   1.915       .  S
Ni33         O38   1.918       .  S
C34          O44   1.277       .  A
C34        C3093   1.481       .  S
O35         Ni51   1.931       .  S
O35          C41   1.282       .  A
O36          C41   1.277       .  A
C37        C3137   1.486       .  S
O38          C40   1.270       .  A
O39         Ni50   1.928       .  S
C40          O46   1.268       .  A
C40        C3159   1.484   1_655  S
C41        C3082   1.475       .  S
H42          O43   0.966       .  S
O43         Ni51   1.921       .  S
O43         Ni45   1.908       .  S
O43         Ni50   1.899       .  S
O44         Ni45   1.941       .  S
Ni45         O49   1.910       .  S
Ni45         O47   1.913       .  S
O46         Ni51   1.914       .  S
C48          O49   1.269       .  A
C48        C3115   1.482       .  S
O53         Ni59   1.926       .  S
O53          C74   1.273       .  A
O54         Ni77   1.911       .  S
O54          C63   1.270       .  A
O55         Ni59   1.898       .  S
O55         Ni77   1.899       .  S
O55         Ni71   1.914       .  S
O55          H78   0.967       .  S
C56          O73   1.277       .  A
C56          O65   1.278       .  A
C56        C3027   1.491       .  S
O57         Ni76   1.927       .  S
O57          C63   1.272       .  A
O58         Ni76   1.896       .  S
O58          C60   1.268       .  A
Ni59         O62   1.917       .  S
Ni59         O64   1.918       .  S
C60          O70   1.278       .  A
C60        C2983   1.484       .  S
O61         Ni77   1.939       .  S
O61          C67   1.283       .  A
O62          C67   1.278       .  A
C63        C3049   1.481   1_655  S
O64          C66   1.271       .  A
O65         Ni76   1.931       .  S
C66          O72   1.270       .  A
C66        C3148   1.484       .  S
C67        C2961   1.483       .  S
H68          O69   0.966       .  S
O69         Ni77   1.921       .  S
O69         Ni71   1.906       .  S
O69         Ni76   1.897       .  S
O70         Ni71   1.949       .  S
Ni71         O75   1.917       .  S
Ni71         O73   1.922       .  S
O72         Ni77   1.919       .  S
C74          O75   1.272       .  A
C74        C3016   1.485       .  S
O79         Ni85   1.926       .  S
O79         C100   1.272       .  A
O80        Ni103   1.916       .  S
O80          C89   1.271       .  A
O81         Ni85   1.902       .  S
O81        Ni103   1.906       .  S
O81         Ni97   1.916       .  S
O81         H104   0.966       .  S
C82          O99   1.277       .  A
C82          O91   1.279       .  A
C82        C3038   1.492       .  S
O83        Ni102   1.927       .  S
O83          C89   1.271       .  A
O84        Ni102   1.897       .  S
O84          C86   1.268       .  A
Ni85         O88   1.914       .  S
Ni85         O90   1.913       .  S
C86          O96   1.278       .  A
C86        C2895   1.478       .  S
O87        Ni103   1.946       .  S
O87          C93   1.285       .  A
O88          C93   1.277       .  A
C89        C3247   1.485       .  S
O90          C92   1.269       .  A
O91        Ni102   1.933       .  S
C92          O98   1.267       .  A
C92        C2917   1.480       .  S
C93        C2873   1.490       .  S
H94          O95   0.966       .  S
O95        Ni103   1.924       .  S
O95         Ni97   1.904       .  S
O95        Ni102   1.896       .  S
O96         Ni97   1.947       .  S
Ni97        O101   1.918       .  S
Ni97         O99   1.921       .  S
O98        Ni103   1.911       .  S
C100        O101   1.271       .  A
C100       C2950   1.486       .  S
O105       Ni111   1.933       .  S
O105        C126   1.273       .  A
O106       Ni129   1.916       .  S
O106        C115   1.270       .  A
O107       Ni111   1.906       .  S
O107       Ni129   1.910       .  S
O107       Ni123   1.915       .  S
O107        H130   0.967       .  S
C108        O125   1.277       .  A
C108        O117   1.278       .  A
C108       C2862   1.485       .  S
O109       Ni128   1.925       .  S
O109        C115   1.270       .  A
O110       Ni128   1.898       .  S
O110        C112   1.267       .  A
Ni111       O114   1.921       .  S
Ni111       O116   1.916       .  S
C112        O122   1.273       .  A
C112       C2818   1.473       .  S
O113       Ni129   1.929       .  S
O113        C119   1.279       .  A
O114        C119   1.278       .  A
C115       C3170   1.483       .  S
O116        C118   1.271       .  A
O117       Ni128   1.925       .  S
C118        O124   1.268       .  A
C118       C3060   1.480       .  S
C119       C2796   1.480       .  S
H120        O121   0.967       .  S
O121       Ni129   1.912       .  S
O121       Ni123   1.906       .  S
O121       Ni128   1.899       .  S
O122       Ni123   1.938       .  S
Ni123       O127   1.916       .  S
Ni123       O125   1.918       .  S
O124       Ni129   1.910       .  S
C126        O127   1.270       .  A
C126       C2840   1.488       .  S
O131       Ni137   1.930       .  S
O131        C152   1.273       .  A
O132       Ni155   1.910       .  S
O132        C141   1.270       .  A
O133       Ni137   1.903       .  S
O133       Ni155   1.906       .  S
O133       Ni149   1.908       .  S
O133        H156   0.966       .  S
C134        O151   1.273       .  A
C134        O143   1.277       .  A
C134       C2851   1.484       .  S
O135       Ni154   1.926       .  S
O135        C141   1.272       .  A
O136       Ni154   1.899       .  S
O136        C138   1.269       .  A
Ni137       O140   1.916       .  S
Ni137       O142   1.915       .  S
C138        O148   1.278       .  A
C138       C2741   1.483       .  S
O139       Ni155   1.938       .  S
O139        C145   1.282       .  A
O140        C145   1.277       .  A
C141       C2928   1.480       .  S
O142        C144   1.270       .  A
O143       Ni154   1.926       .  S
C144        O150   1.268       .  A
C144       C3225   1.483       .  S
C145       C2719   1.482       .  S
H146        O147   0.966       .  S
O147       Ni155   1.920       .  S
O147       Ni149   1.906       .  S
O147       Ni154   1.900       .  S
O148       Ni149   1.946       .  S
Ni149       O153   1.911       .  S
Ni149       O151   1.912       .  S
O150       Ni155   1.912       .  S
C152        O153   1.269       .  A
C152       C2774   1.485       .  S
O157       Ni163   1.929       .  S
O157        C178   1.273       .  A
O158       Ni181   1.913       .  S
O158        C167   1.270       .  A
O159       Ni163   1.898       .  S
O159       Ni181   1.902       .  S
O159       Ni175   1.912       .  S
O159        H182   0.966       .  S
C160        O177   1.276       .  A
C160        O169   1.277       .  A
C160       C2697   1.483       .  S
O161       Ni180   1.923   1_556  S
O161        C167   1.270       .  A
O162       Ni180   1.891   1_556  S
O162        C164   1.267       .  A
Ni163       O166   1.918       .  S
Ni163       O168   1.916       .  S
C164        O174   1.277       .  A
C164       C2609   1.476       .  S
O165       Ni181   1.937       .  S
O165        C171   1.283       .  A
O166        C171   1.278       .  A
C167       C2664   1.480       .  S
O168        C170   1.270       .  A
O169       Ni180   1.926       .  S
C170        O176   1.268       .  A
C170       C2631   1.482       .  S
C171       C2598   1.482       .  S
H172        O173   0.966   1_554  S
O173       Ni181   1.919       .  S
O173       Ni175   1.905       .  S
O173       Ni180   1.896   1_556  S
O174       Ni175   1.946       .  S
Ni175       O179   1.917       .  S
Ni175       O177   1.914   1_556  S
O176       Ni181   1.914       .  S
C178        O179   1.271       .  A
C178       C2675   1.487       .  S
O183       Ni189   1.932       .  S
O183        C204   1.273       .  A
O184       Ni207   1.918       .  S
O184        C193   1.270       .  A
O185       Ni189   1.904       .  S
O185       Ni207   1.911       .  S
O185       Ni201   1.915       .  S
O185        H208   0.967       .  S
C186        O203   1.276       .  A
C186        O195   1.278       .  A
C186       C2708   1.482       .  S
O187       Ni206   1.920       .  S
O187        C193   1.269       .  A
O188       Ni206   1.896       .  S
O188        C190   1.267       .  A
Ni189       O192   1.918       .  S
Ni189       O194   1.915       .  S
C190        O200   1.275       .  A
C190       C2510   1.475       .  S
O191       Ni207   1.931       .  S
O191        C197   1.280       .  A
O192        C197   1.278       .  A
C193       C2532   1.481       .  S
O194        C196   1.270       .  A
O195       Ni206   1.924       .  S
C196        O202   1.269       .  A
C196       C2554   1.481       .  S
C197       C3071   1.483       .  S
H198        O199   0.966       .  S
O199       Ni207   1.913       .  S
O199       Ni201   1.903       .  S
O199       Ni206   1.897       .  S
O200       Ni201   1.943       .  S
Ni201       O205   1.916       .  S
Ni201       O203   1.915       .  S
O202       Ni207   1.913       .  S
C204        O205   1.270       .  A
C204       C2576   1.488       .  S
O209       Ni215   1.926       .  S
O209        C230   1.272       .  A
O210       Ni233   1.920       .  S
O210        C219   1.272       .  A
O211       Ni215   1.896       .  S
O211       Ni233   1.903       .  S
O211       Ni227   1.912       .  S
O211        H234   0.966       .  S
C212        O229   1.277       .  A
C212        O221   1.279       .  A
C212       C2477   1.485       .  S
O213       Ni232   1.924   1_556  S
O213        C219   1.270       .  A
O214       Ni232   1.897   1_556  S
O214        C216   1.267       .  A
Ni215       O218   1.914       .  S
Ni215       O220   1.914       .  S
C216        O226   1.275       .  A
C216       C2411   1.475       .  S
O217       Ni233   1.941       .  S
O217        C223   1.284       .  A
O218        C223   1.278       .  A
C219       C2433   1.482       .  S
O220        C222   1.270       .  A
O221       Ni232   1.928       .  S
C222        O228   1.269       .  A
C222       C2653   1.481       .  S
C223       C2389   1.481       .  S
H224        O225   0.966   1_554  S
O225       Ni233   1.918       .  S
O225       Ni227   1.905       .  S
O225       Ni232   1.895   1_556  S
O226       Ni227   1.940       .  S
Ni227       O231   1.919       .  S
Ni227       O229   1.918   1_556  S
O228       Ni233   1.915       .  S
C230        O231   1.271       .  A
C230       C2455   1.486       .  S
O235       Ni241   1.926       .  S
O235        C256   1.273       .  A
O236       Ni259   1.918       .  S
O236        C245   1.269       .  A
O237       Ni241   1.905       .  S
O237       Ni259   1.908       .  S
O237       Ni253   1.916       .  S
O237        H260   0.967       .  S
C238        O255   1.277       .  A
C238        O247   1.277       .  A
C238       C2488   1.484       .  S
O239       Ni258   1.918       .  S
O239        C245   1.268       .  A
O240       Ni258   1.895       .  S
O240        C242   1.268       .  A
Ni241       O244   1.915       .  S
Ni241       O246   1.924       .  S
C242        O252   1.278       .  A
C242       C2334   1.479       .  S
O243       Ni259   1.935       .  S
O243        C249   1.282       .  A
O244        C249   1.276       .  A
C245       C2543   1.481   1_565  S
O246        C248   1.271       .  A
O247       Ni258   1.922       .  S
C248        O254   1.267       .  A
C248       C2345   1.487       .  S
C249       C2972   1.477       .  S
H250        O251   0.966       .  S
O251       Ni259   1.921       .  S
O251       Ni253   1.906       .  S
O251       Ni258   1.895       .  S
O252       Ni253   1.947       .  S
Ni253       O257   1.920       .  S
Ni253       O255   1.922       .  S
O254       Ni259   1.910       .  S
C256        O257   1.272       .  A
C256       C2367   1.486       .  S
O261       Ni267   1.931       .  S
O261        C282   1.274       .  A
O262       Ni285   1.917       .  S
O262        C271   1.271       .  A
O263       Ni267   1.903       .  S
O263       Ni285   1.909       .  S
O263       Ni279   1.912       .  S
O263        H286   0.966       .  S
C264        O281   1.277       .  A
C264        O273   1.278       .  A
C264       C2301   1.487       .  S
O265       Ni284   1.925   1_556  S
O265        C271   1.270       .  A
O266       Ni284   1.901   1_556  S
O266        C268   1.269       .  A
Ni267       O270   1.917       .  S
Ni267       O272   1.916       .  S
C268        O278   1.276       .  A
C268       C2268   1.485       .  S
O269       Ni285   1.933       .  S
O269        C275   1.281       .  A
O270        C275   1.277       .  A
C271       C2642   1.482       .  S
O272        C274   1.270       .  A
O273       Ni284   1.927       .  S
C274        O280   1.270       .  A
C274       C2444   1.484       .  S
C275       C2235   1.481       .  S
H276        O277   0.966       .  S
O277       Ni285   1.920       .  S
O277       Ni279   1.903       .  S
O277       Ni284   1.897   1_556  S
O278       Ni279   1.942       .  S
Ni279       O283   1.914       .  S
Ni279       O281   1.922   1_556  S
O280       Ni285   1.918       .  S
C282        O283   1.271       .  A
C282       C2279   1.487       .  S
O287       Ni293   1.932       .  S
O287        C308   1.273       .  A
O288       Ni311   1.922       .  S
O288        C297   1.271       .  A
O289       Ni293   1.909       .  S
O289       Ni311   1.911       .  S
O289       Ni305   1.911       .  S
O289        H312   0.966       .  S
C290        O307   1.274       .  A
C290        O299   1.278       .  A
C290       C2312   1.488       .  S
O291       Ni310   1.928       .  S
O291        C297   1.271       .  A
O292       Ni310   1.902       .  S
O292        C294   1.270       .  A
Ni293       O296   1.917       .  S
Ni293       O298   1.918   1_565  S
C294        O304   1.277       .  A
C294       C2191   1.483       .  S
O295       Ni311   1.936       .  S
O295        C301   1.282       .  A
O296        C301   1.277       .  A
C297       C2356   1.488       .  S
O298        C300   1.270       .  A
O299       Ni310   1.930       .  S
C300        O306   1.267   1_545  A
C300       C2521   1.483       .  S
C301       C2785   1.481       .  S
H302        O303   0.966       .  S
O303       Ni311   1.922       .  S
O303       Ni305   1.908       .  S
O303       Ni310   1.901       .  S
O304       Ni305   1.944       .  S
Ni305       O309   1.912       .  S
Ni305       O307   1.917       .  S
O306       Ni311   1.908       .  S
C308        O309   1.269       .  A
C308       C2224   1.486       .  S
O313       Ni319   1.927       .  S
O313        C334   1.271       .  A
O314       Ni337   1.914   1_545  S
O314        C323   1.270       .  A
O315       Ni319   1.900       .  S
O315       Ni337   1.908       .  S
O315       Ni331   1.922       .  S
O315        H338   0.966       .  S
C316        O333   1.283       .  A
C316        O325   1.278       .  A
C316       C2114   1.480       .  S
O317       Ni336   1.932       .  S
O317        C323   1.274   1_565  A
O318       Ni336   1.916       .  S
O318        C320   1.270       .  A
Ni319       O322   1.929       .  S
Ni319       O324   1.897       .  S
C320        O330   1.269       .  A
C320       C2158   1.485       .  S
O321       Ni337   1.917       .  S
O321        C327   1.275       .  A
O322        C327   1.277       .  A
C323       C3104   1.486       .  S
O324        C326   1.269       .  A
O325       Ni336   1.918       .  S
C326        O332   1.277       .  A
C326       C2829   1.483   1_565  S
C327       C2180   1.488       .  S
H328        O329   0.967       .  S
O329       Ni337   1.909       .  S
O329       Ni331   1.904       .  S
O329       Ni336   1.900       .  S
O330       Ni331   1.914       .  S
Ni331       O335   1.914       .  S
Ni331       O333   1.937       .  S
O332       Ni337   1.945       .  S
C334        O335   1.270       .  A
C334       C2125   1.482       .  S
O339       Ni345   1.924       .  S
O339        C360   1.270       .  A
O340       Ni363   1.908       .  S
O340        C349   1.268       .  A
O341       Ni345   1.902       .  S
O341       Ni363   1.908       .  S
O341       Ni357   1.922       .  S
O341        H364   0.966       .  S
C342        O359   1.282       .  A
C342        O351   1.277       .  A
C342       C2037   1.480       .  S
O343       Ni362   1.935       .  S
O343        C349   1.274       .  A
O344       Ni362   1.919       .  S
O344        C346   1.271       .  A
Ni345       O348   1.929       .  S
Ni345       O350   1.898       .  S
C346        O356   1.269       .  A
C346       C2070   1.482       .  S
O347       Ni363   1.915       .  S
O347        C353   1.273       .  A
O348        C353   1.277       .  A
C349       C2323   1.486       .  S
O350        C352   1.268       .  A
O351       Ni362   1.917       .  S
C352        O358   1.276       .  A
C352       C2213   1.476       .  S
C353       C2169   1.487       .  S
H354        O355   0.966       .  S
O355       Ni363   1.909       .  S
O355       Ni357   1.908       .  S
O355       Ni362   1.905       .  S
O356       Ni357   1.910       .  S
Ni357       O361   1.920       .  S
Ni357       O359   1.935       .  S
O358       Ni363   1.941       .  S
C360        O361   1.271       .  A
C360       C2081   1.485       .  S
O365       Ni371   1.926       .  S
O365        C386   1.270       .  A
O366       Ni389   1.921       .  S
O366        C375   1.272       .  A
O367       Ni371   1.899       .  S
O367       Ni389   1.910       .  S
O367       Ni383   1.916       .  S
O367        H390   0.966       .  S
C368        O385   1.281       .  A
C368        O377   1.277       .  A
C368       C1982   1.477       .  S
O369       Ni388   1.926       .  S
O369        C375   1.272       .  A
O370       Ni388   1.916       .  S
O370        C372   1.270       .  A
Ni371       O374   1.926       .  S
Ni371       O376   1.894       .  S
C372        O382   1.269       .  A
C372       C2136   1.483       .  S
O373       Ni389   1.911       .  S
O373        C379   1.275       .  A
O374        C379   1.277       .  A
C375       C2994   1.488       .  S
O376        C378   1.268       .  A
O377       Ni388   1.914       .  S
C378        O384   1.276       .  A
C378       C3126   1.477       .  S
C379       C1993   1.482       .  S
H380        O381   0.967       .  S
O381       Ni389   1.909       .  S
O381       Ni383   1.903       .  S
O381       Ni388   1.898       .  S
O382       Ni383   1.913       .  S
Ni383       O387   1.916       .  S
Ni383       O385   1.932       .  S
O384       Ni389   1.942       .  S
C386        O387   1.270       .  A
C386       C2015   1.484       .  S
O391       Ni397   1.920       .  S
O391        C412   1.269       .  A
O392       Ni415   1.920   1_455  S
O392        C401   1.273       .  A
O393       Ni397   1.891       .  S
O393       Ni415   1.903       .  S
O393       Ni409   1.917       .  S
O393        H416   0.966       .  S
C394        O411   1.282       .  A
C394        O403   1.279       .  A
C394       C1938   1.482       .  S
O395       Ni414   1.930       .  S
O395        C401   1.274   1_655  A
O396       Ni414   1.922       .  S
O396        C398   1.271       .  A
Ni397       O400   1.923       .  S
Ni397       O402   1.894       .  S
C398        O408   1.268       .  A
C398       C1949   1.486       .  S
O399       Ni415   1.919       .  S
O399        C405   1.278       .  A
O400        C405   1.278       .  A
C401       C2202   1.489       .  S
O402        C404   1.268       .  A
O403       Ni414   1.917       .  S
C404        O410   1.278   1_655  A
C404       C2565   1.482   1_655  S
C405       C2004   1.483       .  S
H406        O407   0.966       .  S
O407       Ni415   1.914       .  S
O407       Ni409   1.902       .  S
O407       Ni414   1.898       .  S
O408       Ni409   1.913       .  S
Ni409       O413   1.917       .  S
Ni409       O411   1.933       .  S
O410       Ni415   1.950   1_455  S
C412        O413   1.270       .  A
C412       C2059   1.480       .  S
O417       Ni423   1.926       .  S
O417        C438   1.271       .  A
O418       Ni441   1.911       .  S
O418        C427   1.270       .  A
O419       Ni423   1.898       .  S
O419       Ni441   1.905       .  S
O419       Ni435   1.920       .  S
O419        H442   0.966       .  S
C420        O437   1.282       .  A
C420        O429   1.277       .  A
C420       C1883   1.480       .  S
O421       Ni440   1.932       .  S
O421        C427   1.274       .  A
O422       Ni440   1.920       .  S
O422        C424   1.271       .  A
Ni423       O426   1.927       .  S
Ni423       O428   1.896       .  S
C424        O434   1.268       .  A
C424       C2026   1.485       .  S
O425       Ni441   1.918       .  S
O425        C431   1.276       .  A
O426        C431   1.277       .  A
C427       C2807   1.485       .  S
O428        C430   1.269       .  A
O429       Ni440   1.918       .  S
C430        O436   1.278       .  A
C430       C3005   1.484       .  S
C431       C1916   1.487       .  S
H432        O433   0.967       .  S
O433       Ni441   1.912       .  S
O433       Ni435   1.905       .  S
O433       Ni440   1.904       .  S
O434       Ni435   1.911       .  S
Ni435       O439   1.913       .  S
Ni435       O437   1.939       .  S
O436       Ni441   1.948       .  S
C438        O439   1.270       .  A
C438       C2147   1.483       .  S
O443       Ni449   1.923       .  S
O443        C464   1.270       .  A
O444       Ni467   1.915       .  S
O444        C453   1.271       .  A
O445       Ni449   1.898       .  S
O445       Ni467   1.907       .  S
O445       Ni461   1.919       .  S
O445        H468   0.966       .  S
C446        O463   1.281       .  A
C446        O455   1.278       .  A
C446       C1861   1.482       .  S
O447       Ni466   1.931       .  S
O447        C453   1.274       .  A
O448       Ni466   1.918       .  S
O448        C450   1.270       .  A
Ni449       O452   1.924       .  S
Ni449       O454   1.899       .  S
C450        O460   1.269       .  A
C450       C2092   1.484       .  S
O451       Ni467   1.921       .  S
O451        C457   1.276       .  A
O452        C457   1.277       .  A
C453       C2499   1.487       .  S
O454        C456   1.269       .  A
O455       Ni466   1.917       .  S
C456        O462   1.277       .  A
C456       C2378   1.485       .  S
C457       C1905   1.486       .  S
H458        O459   0.966       .  S
O459       Ni467   1.911       .  S
O459       Ni461   1.909       .  S
O459       Ni466   1.904       .  S
O460       Ni461   1.913       .  S
Ni461       O465   1.923       .  S
Ni461       O463   1.932       .  S
O462       Ni467   1.944       .  S
C464        O465   1.271       .  A
C464       C1960   1.486       .  S
O469       Ni475   1.920       .  S
O469        C490   1.269       .  A
O470       Ni493   1.919       .  S
O470        C479   1.271       .  A
O471       Ni475   1.897       .  S
O471       Ni493   1.906       .  S
O471       Ni487   1.923       .  S
O471        H494   0.966       .  S
C472        O489   1.282       .  A
C472        O481   1.278       .  A
C472       C1894   1.483       .  S
O473       Ni492   1.934       .  S
O473        C479   1.274       .  A
O474       Ni492   1.918       .  S
O474        C476   1.270       .  A
Ni475       O478   1.924       .  S
Ni475       O480   1.897       .  S
C476        O486   1.268       .  A
C476       C1817   1.484       .  S
O477       Ni493   1.921       .  S
O477        C483   1.276       .  A
O478        C483   1.277       .  A
C479       C2752   1.490       .  S
O480        C482   1.268       .  A
O481       Ni492   1.922       .  S
C482        O488   1.277       .  A
C482       C3280   1.479       .  S
C483       C1839   1.486       .  S
H484        O485   0.966       .  S
O485       Ni493   1.913       .  S
O485       Ni487   1.911       .  S
O485       Ni492   1.905       .  S
O486       Ni487   1.912       .  S
Ni487       O491   1.924       .  S
Ni487       O489   1.935       .  S
O488       Ni493   1.946       .  S
C490        O491   1.272       .  A
C490       C1795   1.485       .  S
O495       Ni501   1.921       .  S
O495        C516   1.269       .  A
O496       Ni519   1.911       .  S
O496        C505   1.268       .  A
O497       Ni501   1.898       .  S
O497       Ni519   1.903       .  S
O497       Ni513   1.918       .  S
O497        H520   0.966       .  S
C498        O515   1.281       .  A
C498        O507   1.276       .  A
C498       C1685   1.481       .  S
O499       Ni518   1.926       .  S
O499        C505   1.271       .  A
O500       Ni518   1.915       .  S
O500        C502   1.270       .  A
Ni501       O504   1.928       .  S
Ni501       O506   1.895       .  S
C502        O512   1.269       .  A
C502       C1729   1.481       .  S
O503       Ni519   1.916       .  S
O503        C509   1.276       .  A
O504        C509   1.278       .  A
C505       C1773   1.482       .  S
O506        C508   1.267       .  A
O507       Ni518   1.914       .  S
C508        O514   1.275       .  A
C508       C1718   1.476       .  S
C509       C1850   1.485       .  S
H510        O511   0.967       .  S
O511       Ni519   1.914       .  S
O511       Ni513   1.910       .  S
O511       Ni518   1.906       .  S
O512       Ni513   1.913       .  S
Ni513       O517   1.918       .  S
Ni513       O515   1.933       .  S
O514       Ni519   1.942       .  S
C516        O517   1.270       .  A
C516       C1751   1.481       .  S
O521       Ni527   1.920       .  S
O521        C542   1.269       .  A
O522       Ni545   1.910       .  S
O522        C531   1.269       .  A
O523       Ni527   1.900       .  S
O523       Ni545   1.905       .  S
O523       Ni539   1.918       .  S
O523        H546   0.966       .  S
C524        O541   1.282       .  A
C524        O533   1.278       .  A
C524       C1971   1.475       .  S
O525       Ni544   1.935       .  S
O525        C531   1.275       .  A
O526       Ni544   1.922       .  S
O526        C528   1.272       .  A
Ni527       O530   1.925       .  S
Ni527       O532   1.897       .  S
C528        O538   1.268       .  A
C528       C1806   1.488       .  S
O529       Ni545   1.911       .  S
O529        C535   1.274       .  A
O530        C535   1.277       .  A
C531       C2906   1.487       .  S
O532        C534   1.268       .  A
O533       Ni544   1.915       .  S
C534        O540   1.276       .  A
C534       C2763   1.479       .  S
C535       C1663   1.482       .  S
H536        O537   0.967       .  S
O537       Ni545   1.905       .  S
O537       Ni539   1.909       .  S
O537       Ni544   1.904       .  S
O538       Ni539   1.914       .  S
Ni539       O543   1.922       .  S
Ni539       O541   1.930       .  S
O540       Ni545   1.942       .  S
C542        O543   1.271       .  A
C542       C1641   1.483       .  S
O547       Ni553   1.925       .  S
O547        C568   1.271       .  A
O548       Ni571   1.915       .  S
O548        C557   1.270       .  A
O549       Ni553   1.900       .  S
O549       Ni571   1.907       .  S
O549       Ni565   1.918       .  S
O549        H572   0.966       .  S
C550        O567   1.280       .  A
C550        O559   1.276       .  A
C550       C1553   1.478       .  S
O551       Ni570   1.929       .  S
O551        C557   1.272       .  A
O552       Ni570   1.919       .  S
O552        C554   1.271       .  A
Ni553       O556   1.925       .  S
Ni553       O558   1.899       .  S
C554        O564   1.268       .  A
C554       C1619   1.484       .  S
O555       Ni571   1.911       .  S
O555        C561   1.274       .  A
O556        C561   1.277       .  A
C557       C1608   1.487       .  S
O558        C560   1.269       .  A
O559       Ni570   1.915       .  S
C560        O566   1.275       .  A
C560       C1586   1.476       .  S
C561       C1674   1.481       .  S
H562        O563   0.968       .  S
O563       Ni571   1.910       .  S
O563       Ni565   1.909       .  S
O563       Ni570   1.907       .  S
O564       Ni565   1.912       .  S
Ni565       O569   1.914       .  S
Ni565       O567   1.932       .  S
O566       Ni571   1.939       .  S
C568        O569   1.270       .  A
C568       C1740   1.482   1_565  S
O573       Ni579   1.918       .  S
O573        C594   1.267       .  A
O574       Ni597   1.921       .  S
O574        C583   1.272       .  A
O575       Ni579   1.894       .  S
O575       Ni597   1.903       .  S
O575       Ni591   1.920       .  S
O575        H598   0.966       .  S
C576        O593   1.282       .  A
C576        O585   1.279       .  A
C576       C2103   1.482       .  S
O577       Ni596   1.933       .  S
O577        C583   1.274       .  A
O578       Ni596   1.918       .  S
O578        C580   1.270       .  A
Ni579       O582   1.923       .  S
Ni579       O584   1.894       .  S
C580        O590   1.267       .  A
C580       C1652   1.484       .  S
O581       Ni597   1.922       .  S
O581        C587   1.278       .  A
O582        C587   1.278       .  A
C583       C3203   1.489       .  S
O584        C586   1.267       .  A
O585       Ni596   1.923       .  S
C586        O592   1.278       .  A
C586       C2939   1.476       .  S
C587       C1531   1.486       .  S
H588        O589   0.966       .  S
O589       Ni597   1.911       .  S
O589       Ni591   1.909       .  S
O589       Ni596   1.903       .  S
O590       Ni591   1.909       .  S
Ni591       O595   1.921       .  S
Ni591       O593   1.930       .  S
O592       Ni597   1.947       .  S
C594        O595   1.270       .  A
C594       C1828   1.480       .  S
O599       Ni605   1.924       .  S
O599        C620   1.269       .  A
O600       Ni623   1.918       .  S
O600        C609   1.270       .  A
O601       Ni605   1.905       .  S
O601       Ni623   1.914       .  S
O601       Ni617   1.925       .  S
O601        H624   0.966       .  S
C602        O619   1.283       .  A
C602        O611   1.277       .  A
C602       C1465   1.486       .  S
O603       Ni622   1.930       .  S
O603        C609   1.273       .  A
O604       Ni622   1.916       .  S
O604        C606   1.270       .  A
Ni605       O608   1.927       .  S
Ni605       O610   1.892       .  S
C606        O616   1.266       .  A
C606       C1762   1.480   1_565  S
O607       Ni623   1.916       .  S
O607        C613   1.274       .  A
O608        C613   1.276       .  A
C609       C1520   1.489       .  S
O610        C612   1.267       .  A
O611       Ni622   1.916       .  S
C612        O618   1.277       .  A
C612       C1487   1.474       .  S
C613       C1542   1.487       .  S
H614        O615   0.966       .  S
O615       Ni623   1.912       .  S
O615       Ni617   1.911       .  S
O615       Ni622   1.909       .  S
O616       Ni617   1.906       .  S
Ni617       O621   1.921       .  S
Ni617       O619   1.939       .  S
O618       Ni623   1.946       .  S
C620        O621   1.270       .  A
C620       C1630   1.485       .  S
O625       Ni631   1.928       .  S
O625        C646   1.271       .  A
O626       Ni649   1.919       .  S
O626        C635   1.271       .  A
O627       Ni631   1.898       .  S
O627       Ni649   1.907       .  S
O627       Ni643   1.917   1_556  S
O627        H650   0.966       .  S
C628        O645   1.281       .  A
C628        O637   1.278       .  A
C628       C1927   1.478       .  S
O629       Ni648   1.930   1_556  S
O629        C635   1.273       .  A
O630       Ni648   1.918       .  S
O630        C632   1.270   1_554  A
Ni631       O634   1.928       .  S
Ni631       O636   1.899       .  S
C632        O642   1.268       .  A
C632       C1421   1.484       .  S
O633       Ni649   1.913       .  S
O633        C639   1.275       .  A
O634        C639   1.278       .  A
C635       C2257   1.488       .  S
O636        C638   1.268       .  A
O637       Ni648   1.916       .  S
C638        O644   1.276       .  A
C638       C2466   1.477       .  S
C639       C1443   1.482       .  S
H640        O641   0.968       .  S
O641       Ni649   1.910   1_554  S
O641       Ni643   1.906       .  S
O641       Ni648   1.902       .  S
O642       Ni643   1.915   1_556  S
Ni643       O647   1.917       .  S
Ni643       O645   1.931       .  S
O644       Ni649   1.944       .  S
C646        O647   1.270   1_556  A
C646       C1399   1.483       .  S
O651       Ni657   1.924       .  S
O651        C672   1.270       .  A
O652       Ni675   1.915       .  S
O652        C661   1.270       .  A
O653       Ni657   1.897       .  S
O653       Ni675   1.904       .  S
O653       Ni669   1.914       .  S
O653        H676   0.966       .  S
C654        O671   1.279       .  A
C654        O663   1.277       .  A
C654       C1564   1.480       .  S
O655       Ni674   1.931       .  S
O655        C661   1.273       .  A
O656       Ni674   1.920       .  S
O656        C658   1.272       .  A
Ni657       O660   1.925       .  S
Ni657       O662   1.900       .  S
C658        O668   1.270       .  A
C658       C1355   1.487   1_655  S
O659       Ni675   1.917       .  S
O659        C665   1.277       .  A
O660        C665   1.278       .  A
C661       C1377   1.485       .  S
O662        C664   1.268       .  A
O663       Ni674   1.918       .  S
C664        O670   1.276       .  A
C664       C1322   1.482       .  S
C665       C1454   1.482       .  S
H666        O667   0.966       .  S
O667       Ni675   1.918       .  S
O667       Ni669   1.912       .  S
O667       Ni674   1.907       .  S
O668       Ni669   1.918       .  S
Ni669       O673   1.919       .  S
Ni669       O671   1.931       .  S
O670       Ni675   1.947       .  S
C672        O673   1.271       .  A
C672       C1333   1.485       .  S
O677       Ni683   1.926       .  S
O677        C698   1.270       .  A
O678       Ni701   1.912       .  S
O678        C687   1.269       .  A
O679       Ni683   1.904       .  S
O679       Ni701   1.911       .  S
O679       Ni695   1.921   1_556  S
O679        H702   0.966       .  S
C680        O697   1.281       .  A
C680        O689   1.277       .  A
C680       C2048   1.476       .  S
O681       Ni700   1.933   1_556  S
O681        C687   1.273       .  A
O682       Ni700   1.916       .  S
O682        C684   1.270   1_554  A
Ni683       O686   1.925       .  S
Ni683       O688   1.900       .  S
C684        O694   1.268       .  A
C684       C1289   1.484       .  S
O685       Ni701   1.913       .  S
O685        C691   1.273       .  A
O686        C691   1.276       .  A
C687       C2422   1.486       .  S
O688        C690   1.269       .  A
O689       Ni700   1.918       .  S
C690        O696   1.276       .  A
C690       C2686   1.480       .  S
C691       C1267   1.481       .  S
H692        O693   0.966       .  S
O693       Ni701   1.907   1_554  S
O693       Ni695   1.908       .  S
O693       Ni700   1.905       .  S
O694       Ni695   1.913   1_556  S
Ni695       O699   1.915   1_554  S
Ni695       O697   1.931       .  S
O696       Ni701   1.942       .  S
C698        O699   1.270       .  A
C698       C1432   1.485       .  S
O703       Ni709   1.926       .  S
O703        C724   1.270       .  A
O704       Ni727   1.910       .  S
O704        C713   1.268       .  A
O705       Ni709   1.904       .  S
O705       Ni727   1.907       .  S
O705       Ni721   1.919       .  S
O705        H728   0.966       .  S
C706        O723   1.281       .  A
C706        O715   1.277       .  A
C706       C1476   1.480       .  S
O707       Ni726   1.938       .  S
O707        C713   1.275       .  A
O708       Ni726   1.922       .  S
O708        C710   1.273       .  A
Ni709       O712   1.929       .  S
Ni709       O714   1.898       .  S
C710        O720   1.269       .  A
C710       C1344   1.486       .  S
O711       Ni727   1.911       .  S
O711        C717   1.274       .  A
O712        C717   1.278       .  A
C713       C1245   1.487       .  S
O714        C716   1.268       .  A
O715       Ni726   1.917       .  S
C716        O722   1.274       .  A
C716       C1201   1.475       .  S
C717       C1278   1.483       .  S
H718        O719   0.966       .  S
O719       Ni727   1.911       .  S
O719       Ni721   1.912       .  S
O719       Ni726   1.908       .  S
O720       Ni721   1.913       .  S
Ni721       O725   1.920       .  S
Ni721       O723   1.933       .  S
O722       Ni727   1.938       .  S
C724        O725   1.271       .  A
C724       C1223   1.486   1_655  S
O729       Ni735   1.927       .  S
O729        C750   1.270       .  A
O730       Ni753   1.916       .  S
O730        C739   1.271       .  A
O731       Ni735   1.901       .  S
O731       Ni753   1.909       .  S
O731       Ni747   1.918   1_556  S
O731        H754   0.966       .  S
C732        O749   1.281       .  A
C732        O741   1.278       .  A
C732       C1872   1.480       .  S
O733       Ni752   1.929   1_556  S
O733        C739   1.273       .  A
O734       Ni752   1.919       .  S
O734        C736   1.271       .  A
Ni735       O738   1.926       .  S
Ni735       O740   1.893       .  S
C736        O746   1.268   1_554  A
C736       C1410   1.486   1_554  S
O737       Ni753   1.920       .  S
O737        C743   1.276       .  A
O738        C743   1.277       .  A
C739       C2620   1.486       .  S
O740        C742   1.267       .  A
O741       Ni752   1.919       .  S
C742        O748   1.277       .  A
C742       C2290   1.479       .  S
C743       C1179   1.487       .  S
H744        O745   0.967       .  S
O745       Ni753   1.913   1_554  S
O745       Ni747   1.905       .  S
O745       Ni752   1.904       .  S
O746       Ni747   1.913   1_556  S
Ni747       O751   1.912       .  S
Ni747       O749   1.929       .  S
O748       Ni753   1.947       .  S
C750        O751   1.268   1_556  A
C750       C1300   1.480       .  S
O755       Ni761   1.925       .  S
O755        C776   1.270       .  A
O756       Ni779   1.918       .  S
O756        C765   1.271       .  A
O757       Ni761   1.899       .  S
O757       Ni779   1.909       .  S
O757       Ni773   1.917       .  S
O757        H780   0.966       .  S
C758        O775   1.281       .  A
C758        O767   1.277       .  A
C758       C1696   1.477       .  S
O759       Ni778   1.928       .  S
O759        C765   1.273       .  A
O760       Ni778   1.919       .  S
O760        C762   1.271       .  A
Ni761       O764   1.925       .  S
Ni761       O766   1.897       .  S
C762        O772   1.269       .  A
C762       C1234   1.487       .  S
O763       Ni779   1.919       .  S
O763        C769   1.276       .  A
O764        C769   1.277       .  A
C765       C1157   1.487       .  S
O766        C768   1.268       .  A
O767       Ni778   1.917       .  S
C768        O774   1.277       .  A
C768       C1135   1.484       .  S
C769       C1190   1.486       .  S
H770        O771   0.966       .  S
O771       Ni779   1.912       .  S
O771       Ni773   1.908       .  S
O771       Ni778   1.903       .  S
O772       Ni773   1.914       .  S
Ni773       O777   1.918       .  S
Ni773       O775   1.931       .  S
O774       Ni779   1.948       .  S
C776        O777   1.270       .  A
C776       C1366   1.484       .  S
O781       Ni787   1.931       .  S
O781        C802   1.273       .  A
O782       Ni805   1.910       .  S
O782        C791   1.271       .  A
O783       Ni787   1.897       .  S
O783       Ni805   1.900       .  S
O783       Ni799   1.908       .  S
O783        H806   0.966       .  S
C784        O801   1.273       .  A
C784        O793   1.278       .  A
C784       C1124   1.483       .  S
O785       Ni804   1.927       .  S
O785        C791   1.272       .  A
O786       Ni804   1.897       .  S
O786        C788   1.268       .  A
Ni787       O790   1.916       .  S
Ni787       O792   1.918       .  S
C788        O798   1.276       .  A
C788       C1784   1.479       .  S
O789       Ni805   1.941       .  S
O789        C795   1.283       .  A
O790        C795   1.278       .  A
C791       C1069   1.481       .  S
O792        C794   1.271       .  A
O793       Ni804   1.933       .  S
C794        O800   1.270       .  A
C794       C1102   1.486       .  S
C795       C2884   1.481       .  S
H796        O797   0.966       .  S
O797       Ni805   1.920       .  S
O797       Ni799   1.905       .  S
O797       Ni804   1.901       .  S
O798       Ni799   1.943       .  S
Ni799       O803   1.913       .  S
Ni799       O801   1.906       .  S
O800       Ni805   1.919       .  S
C802        O803   1.269       .  A
C802       C1498   1.486       .  S
O807       Ni813   1.934       .  S
O807        C828   1.275       .  A
O808       Ni831   1.917       .  S
O808        C817   1.269       .  A
O809       Ni813   1.904       .  S
O809       Ni831   1.909       .  S
O809       Ni825   1.912       .  S
O809        H832   0.969       .  S
C810        O827   1.277       .  A
C810        O819   1.277       .  A
C810       C1113   1.482       .  S
O811       Ni830   1.918       .  S
O811        C817   1.268       .  A
O812       Ni830   1.897       .  S
O812        C814   1.268       .  A
Ni813       O816   1.923       .  S
Ni813       O818   1.921       .  S
C814        O824   1.277       .  A
C814       C1168   1.483       .  S
O815       Ni831   1.928       .  S
O815        C821   1.280       .  A
O816        C821   1.278       .  A
C817       C1025   1.480       .  S
O818        C820   1.271       .  A
O819       Ni830   1.921       .  S
C820        O826   1.268       .  A
C820       C1058   1.486       .  S
C821       C2400   1.481       .  S
H822        O823   0.966       .  S
O823       Ni831   1.918       .  S
O823       Ni825   1.903       .  S
O823       Ni830   1.896       .  S
O824       Ni825   1.943       .  S
Ni825       O829   1.918       .  S
Ni825       O827   1.919       .  S
O826       Ni831   1.912       .  S
C828        O829   1.271       .  A
C828       C1311   1.491       .  S
O833       Ni839   1.932       .  S
O833        C854   1.273   1_565  A
O834       Ni857   1.920       .  S
O834        C843   1.271       .  A
O835       Ni839   1.906       .  S
O835       Ni857   1.912       .  S
O835       Ni851   1.911       .  S
O835        H858   0.967       .  S
C836        O853   1.275       .  A
C836        O845   1.278       .  A
C836        C981   1.484       .  S
O837       Ni856   1.927       .  S
O837        C843   1.271       .  A
O838       Ni856   1.901       .  S
O838        C840   1.269       .  A
Ni839       O842   1.917       .  S
Ni839       O844   1.914       .  S
C840        O850   1.277   1_565  A
C840       C1256   1.482   1_565  S
O841       Ni857   1.932       .  S
O841        C847   1.281       .  A
O842        C847   1.278       .  A
C843       C1047   1.486       .  S
O844        C846   1.270       .  A
O845       Ni856   1.928       .  S
C846        O852   1.268       .  A
C846       C1014   1.482       .  S
C847       C2246   1.481       .  S
H848        O849   0.966       .  S
O849       Ni857   1.916       .  S
O849       Ni851   1.908       .  S
O849       Ni856   1.899       .  S
O850       Ni851   1.947   1_545  S
Ni851       O855   1.918   1_565  S
Ni851       O853   1.913       .  S
O852       Ni857   1.912       .  S
C854        O855   1.270       .  A
C854       C1146   1.490       .  S
O859       Ni865   1.931       .  S
O859        C880   1.273       .  A
O860       Ni883   1.918       .  S
O860        C869   1.271       .  A
O861       Ni865   1.901       .  S
O861       Ni883   1.906       .  S
O861       Ni877   1.914       .  S
O861        H884   0.966       .  S
C862        O879   1.277       .  A
C862        O871   1.278       .  A
C862        C992   1.486       .  S
O863       Ni882   1.922       .  S
O863        C869   1.270       .  A
O864       Ni882   1.895       .  S
O864        C866   1.267       .  A
Ni865       O868   1.919       .  S
Ni865       O870   1.914       .  S
C866        O876   1.276       .  A
C866       C1509   1.479       .  S
O867       Ni883   1.938       .  S
O867        C873   1.283       .  A
O868        C873   1.278       .  A
C869        C959   1.481       .  S
O870        C872   1.270       .  A
O871       Ni882   1.926       .  S
C872        O878   1.269       .  A
C872       C1080   1.482       .  S
C873       C2730   1.484       .  S
H874        O875   0.966       .  S
O875       Ni883   1.919       .  S
O875       Ni877   1.903       .  S
O875       Ni882   1.895       .  S
O876       Ni877   1.945       .  S
Ni877       O881   1.912       .  S
Ni877       O879   1.920       .  S
O878       Ni883   1.913       .  S
C880        O881   1.270       .  A
C880       C1575   1.484       .  S
O885       Ni891   1.924       .  S
O885        C906   1.272       .  A
O886       Ni909   1.910       .  S
O886        C895   1.269       .  A
O887       Ni891   1.901       .  S
O887       Ni909   1.904       .  S
O887       Ni903   1.918       .  S
O887        H910   0.967       .  S
C888        O905   1.279       .  A
C888        O897   1.278       .  A
C888        C937   1.486       .  S
O889       Ni908   1.920       .  S
O889        C895   1.269       .  A
O890       Ni908   1.893       .  S
O890        C892   1.267       .  A
Ni891       O894   1.914       .  S
Ni891       O896   1.918       .  S
C892        O902   1.276       .  A
C892       C1388   1.480       .  S
O893       Ni909   1.940       .  S
O893        C899   1.282       .  A
O894        C899   1.277       .  A
C895       C1003   1.477       .  S
O896        C898   1.271       .  A
O897       Ni908   1.924       .  S
C898        O904   1.267       .  A
C898       C1036   1.482       .  S
C899       C2587   1.481       .  S
H900        O901   0.967       .  S
O901       Ni909   1.918       .  S
O901       Ni903   1.903       .  S
O901       Ni908   1.896       .  S
O902       Ni903   1.947       .  S
Ni903       O907   1.916       .  S
Ni903       O905   1.924       .  S
O904       Ni909   1.910       .  S
C906        O907   1.271       .  A
C906       C1212   1.483       .  S
O911       Ni917   1.923       .  S
O911        C932   1.270   1_655  A
O912       Ni935   1.917       .  S
O912        C921   1.271       .  A
O913       Ni917   1.903       .  S
O913       Ni935   1.906       .  S
O913       Ni929   1.912       .  S
O913        H936   0.967       .  S
C914        O931   1.274       .  A
C914        O923   1.279       .  A
C914        C948   1.485       .  S
O915       Ni934   1.930       .  S
O915        C921   1.272       .  A
O916       Ni934   1.895       .  S
O916        C918   1.267       .  A
Ni917       O920   1.912       .  S
Ni917       O922   1.916       .  S
C918        O928   1.277       .  A
C918       C1597   1.478   1_655  S
O919       Ni935   1.937       .  S
O919        C925   1.282       .  A
O920        C925   1.277       .  A
C921       C1091   1.486       .  S
O922        C924   1.270       .  A
O923       Ni934   1.936       .  S
C924        O930   1.268       .  A
C924        C970   1.482       .  S
C925       C3192   1.481       .  S
H926        O927   0.966       .  S
O927       Ni935   1.916       .  S
O927       Ni929   1.908       .  S
O927       Ni934   1.898       .  S
O928       Ni929   1.949       .  S
Ni929       O933   1.921   1_655  S
Ni929       O931   1.908       .  S
O930       Ni935   1.912       .  S
C932        O933   1.271       .  A
C932       C1707   1.486       .  S
C937        C938   1.409       .  A
C937        C942   1.408       .  A
C938        C939   1.397       .  A
C938        H951   1.083       .  S
C939        C940   1.398       .  A
C939        H952   1.084       .  S
C940        C941   1.401       .  A
C940        C943   1.442       .  S
C941        C942   1.402       .  A
C941        H953   1.083       .  S
C942        H954   1.083       .  S
C943        C944   1.207       .  T
C944        C945   1.442       .  S
C945        C946   1.399       .  A
C945        C950   1.400       .  A
C946        C947   1.399       .  A
C946        H955   1.083       .  S
C947        C948   1.409   1_455  A
C947        H956   1.083       .  S
C948        C949   1.408       .  A
C949        C950   1.399   1_655  A
C949        H957   1.083       .  S
C950        H958   1.084       .  S
C959        C960   1.407       .  A
C959        C964   1.409       .  A
C960        C961   1.401       .  A
C960        H973   1.083       .  S
C961        C962   1.402       .  A
C961        H974   1.083       .  S
C962        C963   1.396       .  A
C962        C965   1.439       .  S
C963        C964   1.395       .  A
C963        H975   1.084       .  S
C964        H976   1.083       .  S
C965        C966   1.205       .  T
C966        C967   1.438       .  S
C967        C968   1.400       .  A
C967        C972   1.398       .  A
C968        C969   1.399       .  A
C968        H977   1.083       .  S
C969        C970   1.408       .  A
C969        H978   1.083       .  S
C970        C971   1.409       .  A
C971        C972   1.396       .  A
C971        H979   1.083       .  S
C972        H980   1.084       .  S
C981        C982   1.408       .  A
C981        C986   1.409   1_565  A
C982        C983   1.398       .  A
C982        H995   1.083       .  S
C983        C984   1.399   1_565  A
C983        H996   1.084       .  S
C984        C985   1.400       .  A
C984        C987   1.441       .  S
C985        C986   1.399       .  A
C985        H997   1.083       .  S
C986        H998   1.083       .  S
C987        C988   1.207       .  T
C988        C989   1.441       .  S
C989        C990   1.398       .  A
C989        C994   1.400       .  A
C990        C991   1.397       .  A
C990        H999   1.084       .  S
C991        C992   1.409       .  A
C991       H1000   1.083       .  S
C992        C993   1.409       .  A
C993        C994   1.401       .  A
C993       H1001   1.083       .  S
C994       H1002   1.083       .  S
C1003      C1004   1.406       .  A
C1003      C1008   1.408       .  A
C1004      C1005   1.398       .  A
C1004      H1017   1.083       .  S
C1005      C1006   1.400       .  A
C1005      H1018   1.083       .  S
C1006      C1007   1.397       .  A
C1006      C1009   1.435       .  S
C1007      C1008   1.395       .  A
C1007      H1019   1.084       .  S
C1008      H1020   1.083       .  S
C1009      C1010   1.203       .  T
C1010      C1011   1.436       .  S
C1011      C1012   1.400       .  A
C1011      C1016   1.397       .  A
C1012      C1013   1.399       .  A
C1012      H1021   1.084       .  S
C1013      C1014   1.408       .  A
C1013      H1022   1.083       .  S
C1014      C1015   1.409       .  A
C1015      C1016   1.395       .  A
C1015      H1023   1.083       .  S
C1016      H1024   1.084       .  S
C1025      C1026   1.407       .  A
C1025      C1030   1.408       .  A
C1026      C1027   1.401       .  A
C1026      H1039   1.083       .  S
C1027      C1028   1.402       .  A
C1027      H1040   1.083       .  S
C1028      C1029   1.396       .  A
C1028      C1031   1.438       .  S
C1029      C1030   1.394       .  A
C1029      H1041   1.084       .  S
C1030      H1042   1.083       .  S
C1031      C1032   1.205       .  T
C1032      C1033   1.438       .  S
C1033      C1034   1.400       .  A
C1033      C1038   1.397       .  A
C1034      C1035   1.399       .  A
C1034      H1043   1.083       .  S
C1035      C1036   1.407       .  A
C1035      H1044   1.083       .  S
C1036      C1037   1.410       .  A
C1037      C1038   1.396       .  A
C1037      H1045   1.083       .  S
C1038      H1046   1.084       .  S
C1047      C1048   1.409       .  A
C1047      C1052   1.408       .  A
C1048      C1049   1.398       .  A
C1048      H1061   1.083       .  S
C1049      C1050   1.398       .  A
C1049      H1062   1.084       .  S
C1050      C1051   1.403       .  A
C1050      C1053   1.445       .  S
C1051      C1052   1.403       .  A
C1051      H1063   1.083       .  S
C1052      H1064   1.083       .  S
C1053      C1054   1.209       .  T
C1054      C1055   1.444       .  S
C1055      C1056   1.398       .  A
C1055      C1060   1.402       .  A
C1056      C1057   1.396       .  A
C1056      H1065   1.084       .  S
C1057      C1058   1.410       .  A
C1057      H1066   1.083       .  S
C1058      C1059   1.408       .  A
C1059      C1060   1.403       .  A
C1059      H1067   1.083       .  S
C1060      H1068   1.083       .  S
C1069      C1070   1.406       .  A
C1069      C1074   1.409       .  A
C1070      C1071   1.399       .  A
C1070      H1083   1.083       .  S
C1071      C1072   1.401       .  A
C1071      H1084   1.083       .  S
C1072      C1073   1.397       .  A
C1072      C1075   1.437       .  S
C1073      C1074   1.396       .  A
C1073      H1085   1.084       .  S
C1074      H1086   1.083       .  S
C1075      C1076   1.204       .  T
C1076      C1077   1.437       .  S
C1077      C1078   1.400       .  A
C1077      C1082   1.398       .  A
C1078      C1079   1.399       .  A
C1078      H1087   1.083       .  S
C1079      C1080   1.408       .  A
C1079      H1088   1.083       .  S
C1080      C1081   1.409       .  A
C1081      C1082   1.396       .  A
C1081      H1089   1.083       .  S
C1082      H1090   1.084       .  S
C1091      C1092   1.409       .  A
C1091      C1096   1.408       .  A
C1092      C1093   1.397       .  A
C1092      H1105   1.083       .  S
C1093      C1094   1.398       .  A
C1093      H1106   1.084       .  S
C1094      C1095   1.403       .  A
C1094      C1097   1.444       .  S
C1095      C1096   1.404       .  A
C1095      H1107   1.083       .  S
C1096      H1108   1.083       .  S
C1097      C1098   1.209       .  T
C1098      C1099   1.444       .  S
C1099      C1100   1.401       .  A
C1099      C1104   1.399       .  A
C1100      C1101   1.401       .  A
C1100      H1109   1.083       .  S
C1101      C1102   1.409       .  A
C1101      H1110   1.083       .  S
C1102      C1103   1.409       .  A
C1103      C1104   1.399       .  A
C1103      H1111   1.083       .  S
C1104      H1112   1.083       .  S
C1113      C1114   1.408       .  A
C1113      C1118   1.408       .  A
C1114      C1115   1.397       .  A
C1114      H1127   1.083       .  S
C1115      C1116   1.399       .  A
C1115      H1128   1.084       .  S
C1116      C1117   1.399       .  A
C1116      C1119   1.438       .  S
C1117      C1118   1.398       .  A
C1117      H1129   1.084       .  S
C1118      H1130   1.083       .  S
C1119      C1120   1.205       .  T
C1120      C1121   1.438       .  S
C1121      C1122   1.398       .  A
C1121      C1126   1.399       .  A
C1122      C1123   1.398       .  A
C1122      H1131   1.084       .  S
C1123      C1124   1.409       .  A
C1123      H1132   1.083       .  S
C1124      C1125   1.408       .  A
C1125      C1126   1.398       .  A
C1125      H1133   1.083       .  S
C1126      H1134   1.084       .  S
C1135      C1136   1.407       .  A
C1135      C1140   1.407       .  A
C1136      C1137   1.408       .  A
C1136      H1149   1.083       .  S
C1137      C1138   1.405       .  A
C1137      H1150   1.083       .  S
C1138      C1139   1.398       .  A
C1138      C1141   1.447       .  S
C1139      C1140   1.394       .  A
C1139      H1151   1.084       .  S
C1140      H1152   1.083       .  S
C1141      C1142   1.211       .  T
C1142      C1143   1.448       .  S
C1143      C1144   1.399       .  A
C1143      C1148   1.403       .  A
C1144      C1145   1.396       .  A
C1144      H1153   1.084       .  S
C1145      C1146   1.408       .  A
C1145      H1154   1.083       .  S
C1146      C1147   1.410       .  A
C1147      C1148   1.407       .  A
C1147      H1155   1.083       .  S
C1148      H1156   1.083       .  S
C1157      C1158   1.409       .  A
C1157      C1162   1.408       .  A
C1158      C1159   1.407       .  A
C1158      H1171   1.083       .  S
C1159      C1160   1.403       .  A
C1159      H1172   1.083       .  S
C1160      C1161   1.397       .  A
C1160      C1163   1.444       .  S
C1161      C1162   1.394       .  A
C1161      H1173   1.084       .  S
C1162      H1174   1.083       .  S
C1163      C1164   1.209       .  T
C1164      C1165   1.444       .  S
C1165      C1166   1.398       .  A
C1165      C1170   1.404       .  A
C1166      C1167   1.394       .  A
C1166      H1175   1.084       .  S
C1167      C1168   1.408       .  A
C1167      H1176   1.083       .  S
C1168      C1169   1.407       .  A
C1169      C1170   1.406       .  A
C1169      H1177   1.083       .  S
C1170      H1178   1.083       .  S
C1179      C1180   1.409       .  A
C1179      C1184   1.409       .  A
C1180      C1181   1.402       .  A
C1180      H1193   1.083       .  S
C1181      C1182   1.401       .  A
C1181      H1194   1.083       .  S
C1182      C1183   1.398       .  A
C1182      C1185   1.442       .  S
C1183      C1184   1.397       .  A
C1183      H1195   1.084       .  S
C1184      H1196   1.083       .  S
C1185      C1186   1.207       .  T
C1186      C1187   1.442       .  S
C1187      C1188   1.401       .  A
C1187      C1192   1.399       .  A
C1188      C1189   1.401       .  A
C1188      H1197   1.083       .  S
C1189      C1190   1.409       .  A
C1189      H1198   1.083       .  S
C1190      C1191   1.409       .  A
C1191      C1192   1.397       .  A
C1191      H1199   1.083       .  S
C1192      H1200   1.084       .  S
C1201      C1202   1.406       .  A
C1201      C1206   1.405       .  A
C1202      C1203   1.404       .  A
C1202      H1215   1.083       .  S
C1203      C1204   1.403       .  A
C1203      H1216   1.083       .  S
C1204      C1205   1.399       .  A
C1204      C1207   1.442       .  S
C1205      C1206   1.395       .  A
C1205      H1217   1.084       .  S
C1206      H1218   1.083       .  S
C1207      C1208   1.208       .  T
C1208      C1209   1.443       .  S
C1209      C1210   1.399   1_655  A
C1209      C1214   1.402       .  A
C1210      C1211   1.396       .  A
C1210      H1219   1.084       .  S
C1211      C1212   1.408       .  A
C1211      H1220   1.083       .  S
C1212      C1213   1.407       .  A
C1213      C1214   1.404   1_455  A
C1213      H1221   1.083       .  S
C1214      H1222   1.083       .  S
C1223      C1224   1.407       .  A
C1223      C1228   1.409       .  A
C1224      C1225   1.403       .  A
C1224      H1237   1.083   1_455  S
C1225      C1226   1.403       .  A
C1225      H1238   1.083       .  S
C1226      C1227   1.397       .  A
C1226      C1229   1.444       .  S
C1227      C1228   1.397       .  A
C1227      H1239   1.084       .  S
C1228      H1240   1.083       .  S
C1229      C1230   1.208       .  T
C1230      C1231   1.443       .  S
C1231      C1232   1.398       .  A
C1231      C1236   1.402       .  A
C1232      C1233   1.396       .  A
C1232      H1241   1.084       .  S
C1233      C1234   1.410       .  A
C1233      H1242   1.083       .  S
C1234      C1235   1.408       .  A
C1235      C1236   1.403       .  A
C1235      H1243   1.083       .  S
C1236      H1244   1.083       .  S
C1245      C1246   1.410       .  A
C1245      C1250   1.406       .  A
C1246      C1247   1.406       .  A
C1246      H1259   1.083       .  S
C1247      C1248   1.403       .  A
C1247      H1260   1.083       .  S
C1248      C1249   1.400       .  A
C1248      C1251   1.449       .  S
C1249      C1250   1.398       .  A
C1249      H1261   1.084       .  S
C1250      H1262   1.083       .  S
C1251      C1252   1.211       .  T
C1252      C1253   1.448       .  S
C1253      C1254   1.399       .  A
C1253      C1258   1.405       .  A
C1254      C1255   1.396       .  A
C1254      H1263   1.084       .  S
C1255      C1256   1.406       .  A
C1255      H1264   1.083   1_545  S
C1256      C1257   1.407       .  A
C1257      C1258   1.408       .  A
C1257      H1265   1.083       .  S
C1258      H1266   1.083       .  S
C1267      C1268   1.407       .  A
C1267      C1272   1.408       .  A
C1268      C1269   1.397       .  A
C1268      H1281   1.083       .  S
C1269      C1270   1.399       .  A
C1269      H1282   1.084       .  S
C1270      C1271   1.400       .  A
C1270      C1273   1.439       .  S
C1271      C1272   1.399       .  A
C1271      H1283   1.083       .  S
C1272      H1284   1.083       .  S
C1273      C1274   1.206       .  T
C1274      C1275   1.439       .  S
C1275      C1276   1.399       .  A
C1275      C1280   1.399       .  A
C1276      C1277   1.398       .  A
C1276      H1285   1.084       .  S
C1277      C1278   1.407       .  A
C1277      H1286   1.083       .  S
C1278      C1279   1.409       .  A
C1279      C1280   1.399       .  A
C1279      H1287   1.083       .  S
C1280      H1288   1.084       .  S
C1289      C1290   1.408       .  A
C1289      C1294   1.410       .  A
C1290      C1291   1.400       .  A
C1290      H1303   1.083   1_556  S
C1291      C1292   1.400       .  A
C1291      H1304   1.083   1_556  S
C1292      C1293   1.398       .  A
C1292      C1295   1.440       .  S
C1293      C1294   1.397       .  A
C1293      H1305   1.084       .  S
C1294      H1306   1.083       .  S
C1295      C1296   1.206       .  T
C1296      C1297   1.440       .  S
C1297      C1298   1.401   1_556  A
C1297      C1302   1.398       .  A
C1298      C1299   1.400       .  A
C1298      H1307   1.083       .  S
C1299      C1300   1.407   1_554  A
C1299      H1308   1.083       .  S
C1300      C1301   1.408       .  A
C1301      C1302   1.397       .  A
C1301      H1309   1.083       .  S
C1302      H1310   1.084       .  S
C1311      C1312   1.410       .  A
C1311      C1316   1.408       .  A
C1312      C1313   1.409       .  A
C1312      H1325   1.083       .  S
C1313      C1314   1.405       .  A
C1313      H1326   1.083       .  S
C1314      C1315   1.398       .  A
C1314      C1317   1.449       .  S
C1315      C1316   1.395       .  A
C1315      H1327   1.084       .  S
C1316      H1328   1.083       .  S
C1317      C1318   1.212       .  T
C1318      C1319   1.449       .  S
C1319      C1320   1.399       .  A
C1319      C1324   1.405       .  A
C1320      C1321   1.397       .  A
C1320      H1329   1.084       .  S
C1321      C1322   1.406       .  A
C1321      H1330   1.083       .  S
C1322      C1323   1.407       .  A
C1323      C1324   1.407       .  A
C1323      H1331   1.083       .  S
C1324      H1332   1.083       .  S
C1333      C1334   1.409       .  A
C1333      C1338   1.407       .  A
C1334      C1335   1.397       .  A
C1334      H1347   1.083       .  S
C1335      C1336   1.398       .  A
C1335      H1348   1.084       .  S
C1336      C1337   1.403       .  A
C1336      C1339   1.443       .  S
C1337      C1338   1.403       .  A
C1337      H1349   1.083       .  S
C1338      H1350   1.083       .  S
C1339      C1340   1.208       .  T
C1340      C1341   1.443       .  S
C1341      C1342   1.398   1_565  A
C1341      C1346   1.401       .  A
C1342      C1343   1.398       .  A
C1342      H1351   1.084       .  S
C1343      C1344   1.410       .  A
C1343      H1352   1.083       .  S
C1344      C1345   1.408       .  A
C1345      C1346   1.402   1_545  A
C1345      H1353   1.083       .  S
C1346      H1354   1.083       .  S
C1355      C1356   1.409       .  A
C1355      C1360   1.409       .  A
C1356      C1357   1.398       .  A
C1356      H1369   1.083       .  S
C1357      C1358   1.398       .  A
C1357      H1370   1.084       .  S
C1358      C1359   1.401       .  A
C1358      C1361   1.443       .  S
C1359      C1360   1.402       .  A
C1359      H1371   1.083       .  S
C1360      H1372   1.083       .  S
C1361      C1362   1.208       .  T
C1362      C1363   1.443   1_565  S
C1363      C1364   1.398       .  A
C1363      C1368   1.403       .  A
C1364      C1365   1.397       .  A
C1364      H1373   1.084   1_545  S
C1365      C1366   1.409       .  A
C1365      H1374   1.083       .  S
C1366      C1367   1.407       .  A
C1367      C1368   1.402       .  A
C1367      H1375   1.083       .  S
C1368      H1376   1.083       .  S
C1377      C1378   1.408       .  A
C1377      C1382   1.407       .  A
C1378      C1379   1.405       .  A
C1378      H1391   1.083       .  S
C1379      C1380   1.403       .  A
C1379      H1392   1.083       .  S
C1380      C1381   1.399       .  A
C1380      C1383   1.446       .  S
C1381      C1382   1.397       .  A
C1381      H1393   1.084       .  S
C1382      H1394   1.083       .  S
C1383      C1384   1.210       .  T
C1384      C1385   1.445   1_655  S
C1385      C1386   1.398       .  A
C1385      C1390   1.404   1_455  A
C1386      C1387   1.395       .  A
C1386      H1395   1.084       .  S
C1387      C1388   1.407       .  A
C1387      H1396   1.084       .  S
C1388      C1389   1.406       .  A
C1389      C1390   1.406   1_455  A
C1389      H1397   1.083       .  S
C1390      H1398   1.083       .  S
C1399      C1400   1.409       .  A
C1399      C1404   1.407   1_556  A
C1400      C1401   1.398       .  A
C1400      H1413   1.083       .  S
C1401      C1402   1.399   1_556  A
C1401      H1414   1.084       .  S
C1402      C1403   1.402       .  A
C1402      C1405   1.443   1_554  S
C1403      C1404   1.401       .  A
C1403      H1415   1.083       .  S
C1404      H1416   1.083       .  S
C1405      C1406   1.208       .  T
C1406      C1407   1.443       .  S
C1407      C1408   1.398       .  A
C1407      C1412   1.401   1_556  A
C1408      C1409   1.398       .  A
C1408      H1417   1.084       .  S
C1409      C1410   1.410       .  A
C1409      H1418   1.083       .  S
C1410      C1411   1.408   1_556  A
C1411      C1412   1.401       .  A
C1411      H1419   1.083       .  S
C1412      H1420   1.083       .  S
C1421      C1422   1.408   1_556  A
C1421      C1426   1.409       .  A
C1422      C1423   1.401       .  A
C1422      H1435   1.083       .  S
C1423      C1424   1.401   1_554  A
C1423      H1436   1.083       .  S
C1424      C1425   1.399       .  A
C1424      C1427   1.443       .  S
C1425      C1426   1.398       .  A
C1425      H1437   1.084       .  S
C1426      H1438   1.083       .  S
C1427      C1428   1.208       .  T
C1428      C1429   1.443       .  S
C1429      C1430   1.402   1_556  A
C1429      C1434   1.398       .  A
C1430      C1431   1.402       .  A
C1430      H1439   1.083       .  S
C1431      C1432   1.408   1_554  A
C1431      H1440   1.083       .  S
C1432      C1433   1.409       .  A
C1433      C1434   1.397       .  A
C1433      H1441   1.083       .  S
C1434      H1442   1.084       .  S
C1443      C1444   1.408       .  A
C1443      C1448   1.408       .  A
C1444      C1445   1.398       .  A
C1444      H1457   1.083       .  S
C1445      C1446   1.399       .  A
C1445      H1458   1.083       .  S
C1446      C1447   1.399       .  A
C1446      C1449   1.439       .  S
C1447      C1448   1.398       .  A
C1447      H1459   1.084       .  S
C1448      H1460   1.083       .  S
C1449      C1450   1.206       .  T
C1450      C1451   1.439       .  S
C1451      C1452   1.399       .  A
C1451      C1456   1.400       .  A
C1452      C1453   1.397       .  A
C1452      H1461   1.084       .  S
C1453      C1454   1.408       .  A
C1453      H1462   1.083       .  S
C1454      C1455   1.408       .  A
C1455      C1456   1.400       .  A
C1455      H1463   1.083       .  S
C1456      H1464   1.083       .  S
C1465      C1466   1.408       .  A
C1465      C1470   1.408       .  A
C1466      C1467   1.396       .  A
C1466      H1479   1.083       .  S
C1467      C1468   1.399   1_565  A
C1467      H1480   1.084   1_565  S
C1468      C1469   1.404   1_545  A
C1468      C1471   1.448       .  S
C1469      C1470   1.407       .  A
C1469      H1481   1.083       .  S
C1470      H1482   1.083       .  S
C1471      C1472   1.211       .  T
C1472      C1473   1.448       .  S
C1473      C1474   1.404       .  A
C1473      C1478   1.400       .  A
C1474      C1475   1.406       .  A
C1474      H1483   1.083       .  S
C1475      C1476   1.407       .  A
C1475      H1484   1.083       .  S
C1476      C1477   1.406       .  A
C1477      C1478   1.397       .  A
C1477      H1485   1.083       .  S
C1478      H1486   1.084       .  S
C1487      C1488   1.405       .  A
C1487      C1492   1.405       .  A
C1488      C1489   1.396       .  A
C1488      H1501   1.084       .  S
C1489      C1490   1.399       .  A
C1489      H1502   1.084       .  S
C1490      C1491   1.404       .  A
C1490      C1493   1.444       .  S
C1491      C1492   1.405       .  A
C1491      H1503   1.083       .  S
C1492      H1504   1.083       .  S
C1493      C1494   1.209       .  T
C1494      C1495   1.445       .  S
C1495      C1496   1.402       .  A
C1495      C1500   1.398       .  A
C1496      C1497   1.405       .  A
C1496      H1505   1.083       .  S
C1497      C1498   1.409       .  A
C1497      H1506   1.083       .  S
C1498      C1499   1.407       .  A
C1499      C1500   1.396       .  A
C1499      H1507   1.083       .  S
C1500      H1508   1.084       .  S
C1509      C1510   1.406       .  A
C1509      C1514   1.406       .  A
C1510      C1511   1.395       .  A
C1510      H1523   1.084       .  S
C1511      C1512   1.399       .  A
C1511      H1524   1.084       .  S
C1512      C1513   1.405   1_545  A
C1512      C1515   1.446   1_545  S
C1513      C1514   1.407   1_565  A
C1513      H1525   1.083       .  S
C1514      H1526   1.083       .  S
C1515      C1516   1.210       .  T
C1516      C1517   1.446       .  S
C1517      C1518   1.403       .  A
C1517      C1522   1.398       .  A
C1518      C1519   1.407       .  A
C1518      H1527   1.083       .  S
C1519      C1520   1.409       .  A
C1519      H1528   1.083       .  S
C1520      C1521   1.408       .  A
C1521      C1522   1.395       .  A
C1521      H1529   1.083       .  S
C1522      H1530   1.084   1_565  S
C1531      C1532   1.409       .  A
C1531      C1536   1.408       .  A
C1532      C1533   1.399       .  A
C1532      H1545   1.083       .  S
C1533      C1534   1.399       .  A
C1533      H1546   1.084       .  S
C1534      C1535   1.400       .  A
C1534      C1537   1.442       .  S
C1535      C1536   1.399       .  A
C1535      H1547   1.083       .  S
C1536      H1548   1.083       .  S
C1537      C1538   1.208       .  T
C1538      C1539   1.443       .  S
C1539      C1540   1.399       .  A
C1539      C1544   1.401       .  A
C1540      C1541   1.398       .  A
C1540      H1549   1.084       .  S
C1541      C1542   1.409       .  A
C1541      H1550   1.083       .  S
C1542      C1543   1.409       .  A
C1543      C1544   1.402       .  A
C1543      H1551   1.083       .  S
C1544      H1552   1.083       .  S
C1553      C1554   1.406       .  A
C1553      C1558   1.407       .  A
C1554      C1555   1.395       .  A
C1554      H1567   1.083       .  S
C1555      C1556   1.399       .  A
C1555      H1568   1.084       .  S
C1556      C1557   1.403       .  A
C1556      C1559   1.445       .  S
C1557      C1558   1.405       .  A
C1557      H1569   1.083       .  S
C1558      H1570   1.083       .  S
C1559      C1560   1.209       .  T
C1560      C1561   1.445       .  S
C1561      C1562   1.400   1_455  A
C1561      C1566   1.402   1_455  A
C1562      C1563   1.397       .  A
C1562      H1571   1.084       .  S
C1563      C1564   1.406       .  A
C1563      H1572   1.083       .  S
C1564      C1565   1.408       .  A
C1565      C1566   1.404       .  A
C1565      H1573   1.083       .  S
C1566      H1574   1.083   1_655  S
C1575      C1576   1.407       .  A
C1575      C1580   1.408       .  A
C1576      C1577   1.395       .  A
C1576      H1589   1.083       .  S
C1577      C1578   1.399   1_545  A
C1577      H1590   1.084       .  S
C1578      C1579   1.401       .  A
C1578      C1581   1.443       .  S
C1579      C1580   1.404   1_565  A
C1579      H1591   1.083       .  S
C1580      H1592   1.083       .  S
C1581      C1582   1.208       .  T
C1582      C1583   1.442       .  S
C1583      C1584   1.404       .  A
C1583      C1588   1.398       .  A
C1584      C1585   1.406       .  A
C1584      H1593   1.083       .  S
C1585      C1586   1.407       .  A
C1585      H1594   1.083       .  S
C1586      C1587   1.404       .  A
C1587      C1588   1.394       .  A
C1587      H1595   1.083       .  S
C1588      H1596   1.084       .  S
C1597      C1598   1.406       .  A
C1597      C1602   1.405       .  A
C1598      C1599   1.397       .  A
C1598      H1611   1.084   1_455  S
C1599      C1600   1.399       .  A
C1599      H1612   1.084       .  S
C1600      C1601   1.404       .  A
C1600      C1603   1.446       .  S
C1601      C1602   1.405       .  A
C1601      H1613   1.083       .  S
C1602      H1614   1.083       .  S
C1603      C1604   1.210       .  T
C1604      C1605   1.446       .  S
C1605      C1606   1.403       .  A
C1605      C1610   1.399       .  A
C1606      C1607   1.405       .  A
C1606      H1615   1.083       .  S
C1607      C1608   1.409       .  A
C1607      H1616   1.083       .  S
C1608      C1609   1.408       .  A
C1609      C1610   1.396       .  A
C1609      H1617   1.083       .  S
C1610      H1618   1.084       .  S
C1619      C1620   1.407       .  A
C1619      C1624   1.410       .  A
C1620      C1621   1.401   1_455  A
C1620      H1633   1.083       .  S
C1621      C1622   1.401       .  A
C1621      H1634   1.083       .  S
C1622      C1623   1.398   1_655  A
C1622      C1625   1.442       .  S
C1623      C1624   1.397       .  A
C1623      H1635   1.084       .  S
C1624      H1636   1.083       .  S
C1625      C1626   1.208       .  T
C1626      C1627   1.442       .  S
C1627      C1628   1.403       .  A
C1627      C1632   1.397       .  A
C1628      C1629   1.404       .  A
C1628      H1637   1.083       .  S
C1629      C1630   1.408       .  A
C1629      H1638   1.083       .  S
C1630      C1631   1.409       .  A
C1631      C1632   1.396       .  A
C1631      H1639   1.083       .  S
C1632      H1640   1.084       .  S
C1641      C1642   1.407       .  A
C1641      C1646   1.409       .  A
C1642      C1643   1.402       .  A
C1642      H1655   1.083       .  S
C1643      C1644   1.402       .  A
C1643      H1656   1.083       .  S
C1644      C1645   1.397       .  A
C1644      C1647   1.441       .  S
C1645      C1646   1.396       .  A
C1645      H1657   1.084       .  S
C1646      H1658   1.083       .  S
C1647      C1648   1.207       .  T
C1648      C1649   1.440       .  S
C1649      C1650   1.401       .  A
C1649      C1654   1.397       .  A
C1650      C1651   1.401       .  A
C1650      H1659   1.083       .  S
C1651      C1652   1.407       .  A
C1651      H1660   1.083       .  S
C1652      C1653   1.410       .  A
C1653      C1654   1.396       .  A
C1653      H1661   1.083       .  S
C1654      H1662   1.084       .  S
C1663      C1664   1.407       .  A
C1663      C1668   1.409       .  A
C1664      C1665   1.396       .  A
C1664      H1677   1.083       .  S
C1665      C1666   1.398       .  A
C1665      H1678   1.084       .  S
C1666      C1667   1.399       .  A
C1666      C1669   1.437       .  S
C1667      C1668   1.399       .  A
C1667      H1679   1.084       .  S
C1668      H1680   1.083       .  S
C1669      C1670   1.204       .  T
C1670      C1671   1.437       .  S
C1671      C1672   1.399       .  A
C1671      C1676   1.399       .  A
C1672      C1673   1.398       .  A
C1672      H1681   1.083       .  S
C1673      C1674   1.409       .  A
C1673      H1682   1.083       .  S
C1674      C1675   1.408       .  A
C1675      C1676   1.397       .  A
C1675      H1683   1.083       .  S
C1676      H1684   1.084       .  S
C1685      C1686   1.407       .  A
C1685      C1690   1.408       .  A
C1686      C1687   1.396       .  A
C1686      H1699   1.083       .  S
C1687      C1688   1.399       .  A
C1687      H1700   1.084       .  S
C1688      C1689   1.403       .  A
C1688      C1691   1.445       .  S
C1689      C1690   1.405       .  A
C1689      H1701   1.083       .  S
C1690      H1702   1.083       .  S
C1691      C1692   1.209       .  T
C1692      C1693   1.444       .  S
C1693      C1694   1.402       .  A
C1693      C1698   1.400       .  A
C1694      C1695   1.404       .  A
C1694      H1703   1.083       .  S
C1695      C1696   1.407       .  A
C1695      H1704   1.083       .  S
C1696      C1697   1.405       .  A
C1697      C1698   1.396       .  A
C1697      H1705   1.083       .  S
C1698      H1706   1.084       .  S
C1707      C1708   1.409       .  A
C1707      C1712   1.408       .  A
C1708      C1709   1.396       .  A
C1708      H1721   1.083       .  S
C1709      C1710   1.398       .  A
C1709      H1722   1.084       .  S
C1710      C1711   1.403       .  A
C1710      C1713   1.445       .  S
C1711      C1712   1.405       .  A
C1711      H1723   1.083       .  S
C1712      H1724   1.083       .  S
C1713      C1714   1.209       .  T
C1714      C1715   1.445       .  S
C1715      C1716   1.404       .  A
C1715      C1720   1.399       .  A
C1716      C1717   1.405       .  A
C1716      H1725   1.083       .  S
C1717      C1718   1.405       .  A
C1717      H1726   1.083       .  S
C1718      C1719   1.405       .  A
C1719      C1720   1.395       .  A
C1719      H1727   1.084       .  S
C1720      H1728   1.084       .  S
C1729      C1730   1.408       .  A
C1729      C1734   1.408       .  A
C1730      C1731   1.396       .  A
C1730      H1743   1.083       .  S
C1731      C1732   1.398       .  A
C1731      H1744   1.084       .  S
C1732      C1733   1.400       .  A
C1732      C1735   1.439       .  S
C1733      C1734   1.400       .  A
C1733      H1745   1.083       .  S
C1734      H1746   1.083       .  S
C1735      C1736   1.206       .  T
C1736      C1737   1.440       .  S
C1737      C1738   1.397       .  A
C1737      C1742   1.402       .  A
C1738      C1739   1.395       .  A
C1738      H1747   1.084       .  S
C1739      C1740   1.408       .  A
C1739      H1748   1.083       .  S
C1740      C1741   1.407       .  A
C1741      C1742   1.402       .  A
C1741      H1749   1.083   1_545  S
C1742      H1750   1.083       .  S
C1751      C1752   1.409       .  A
C1751      C1756   1.407       .  A
C1752      C1753   1.394       .  A
C1752      H1765   1.083       .  S
C1753      C1754   1.396       .  A
C1753      H1766   1.084   1_455  S
C1754      C1755   1.402       .  A
C1754      C1757   1.438   1_455  S
C1755      C1756   1.402       .  A
C1755      H1767   1.083       .  S
C1756      H1768   1.083       .  S
C1757      C1758   1.205       .  T
C1758      C1759   1.438       .  S
C1759      C1760   1.397       .  A
C1759      C1764   1.400       .  A
C1760      C1761   1.395       .  A
C1760      H1769   1.084       .  S
C1761      C1762   1.409       .  A
C1761      H1770   1.083   1_545  S
C1762      C1763   1.407       .  A
C1763      C1764   1.399       .  A
C1763      H1771   1.083       .  S
C1764      H1772   1.083       .  S
C1773      C1774   1.409       .  A
C1773      C1778   1.407       .  A
C1774      C1775   1.405       .  A
C1774      H1787   1.083       .  S
C1775      C1776   1.402       .  A
C1775      H1788   1.083       .  S
C1776      C1777   1.398       .  A
C1776      C1779   1.442       .  S
C1777      C1778   1.393       .  A
C1777      H1789   1.084       .  S
C1778      H1790   1.083       .  S
C1779      C1780   1.207       .  T
C1780      C1781   1.442       .  S
C1781      C1782   1.398       .  A
C1781      C1786   1.403       .  A
C1782      C1783   1.394       .  A
C1782      H1791   1.084       .  S
C1783      C1784   1.406       .  A
C1783      H1792   1.083       .  S
C1784      C1785   1.407       .  A
C1785      C1786   1.405       .  A
C1785      H1793   1.083       .  S
C1786      H1794   1.083       .  S
C1795      C1796   1.407       .  A
C1795      C1800   1.409       .  A
C1796      C1797   1.404       .  A
C1796      H1809   1.083       .  S
C1797      C1798   1.403       .  A
C1797      H1810   1.083       .  S
C1798      C1799   1.397       .  A
C1798      C1801   1.444       .  S
C1799      C1800   1.397       .  A
C1799      H1811   1.084       .  S
C1800      H1812   1.083       .  S
C1801      C1802   1.209       .  T
C1802      C1803   1.444       .  S
C1803      C1804   1.402       .  A
C1803      C1808   1.398       .  A
C1804      C1805   1.403       .  A
C1804      H1813   1.083       .  S
C1805      C1806   1.408       .  A
C1805      H1814   1.083       .  S
C1806      C1807   1.410       .  A
C1807      C1808   1.398       .  A
C1807      H1815   1.083       .  S
C1808      H1816   1.084       .  S
C1817      C1818   1.410       .  A
C1817      C1822   1.408       .  A
C1818      C1819   1.396       .  A
C1818      H1831   1.083       .  S
C1819      C1820   1.397       .  A
C1819      H1832   1.084       .  S
C1820      C1821   1.401       .  A
C1820      C1823   1.440       .  S
C1821      C1822   1.401       .  A
C1821      H1833   1.083       .  S
C1822      H1834   1.083       .  S
C1823      C1824   1.206       .  T
C1824      C1825   1.440       .  S
C1825      C1826   1.397       .  A
C1825      C1830   1.402       .  A
C1826      C1827   1.395       .  A
C1826      H1835   1.084       .  S
C1827      C1828   1.408       .  A
C1827      H1836   1.083       .  S
C1828      C1829   1.407       .  A
C1829      C1830   1.402       .  A
C1829      H1837   1.083       .  S
C1830      H1838   1.083       .  S
C1839      C1840   1.409       .  A
C1839      C1844   1.409       .  A
C1840      C1841   1.398       .  A
C1840      H1853   1.083       .  S
C1841      C1842   1.399       .  A
C1841      H1854   1.084       .  S
C1842      C1843   1.400       .  A
C1842      C1845   1.442       .  S
C1843      C1844   1.400       .  A
C1843      H1855   1.083       .  S
C1844      H1856   1.083       .  S
C1845      C1846   1.207       .  T
C1846      C1847   1.441       .  S
C1847      C1848   1.400       .  A
C1847      C1852   1.399       .  A
C1848      C1849   1.400       .  A
C1848      H1857   1.083       .  S
C1849      C1850   1.409       .  A
C1849      H1858   1.083       .  S
C1850      C1851   1.408       .  A
C1851      C1852   1.398       .  A
C1851      H1859   1.083       .  S
C1852      H1860   1.084       .  S
C1861      C1862   1.408       .  A
C1861      C1866   1.407       .  A
C1862      C1863   1.405       .  A
C1862      H1875   1.083       .  S
C1863      C1864   1.403       .  A
C1863      H1876   1.083       .  S
C1864      C1865   1.398       .  A
C1864      C1867   1.443       .  S
C1865      C1866   1.395       .  A
C1865      H1877   1.084       .  S
C1866      H1878   1.083       .  S
C1867      C1868   1.209       .  T
C1868      C1869   1.444       .  S
C1869      C1870   1.400       .  A
C1869      C1874   1.401       .  A
C1870      C1871   1.397       .  A
C1870      H1879   1.084       .  S
C1871      C1872   1.406       .  A
C1871      H1880   1.083       .  S
C1872      C1873   1.408       .  A
C1873      C1874   1.403       .  A
C1873      H1881   1.083       .  S
C1874      H1882   1.083       .  S
C1883      C1884   1.407       .  A
C1883      C1888   1.406       .  A
C1884      C1885   1.405       .  A
C1884      H1897   1.083       .  S
C1885      C1886   1.403       .  A
C1885      H1898   1.083       .  S
C1886      C1887   1.401       .  A
C1886      C1889   1.449       .  S
C1887      C1888   1.399       .  A
C1887      H1899   1.084       .  S
C1888      H1900   1.083       .  S
C1889      C1890   1.212       .  T
C1890      C1891   1.449       .  S
C1891      C1892   1.400       .  A
C1891      C1896   1.404       .  A
C1892      C1893   1.398       .  A
C1892      H1901   1.084       .  S
C1893      C1894   1.406       .  A
C1893      H1902   1.083       .  S
C1894      C1895   1.408       .  A
C1895      C1896   1.407       .  A
C1895      H1903   1.083       .  S
C1896      H1904   1.083       .  S
C1905      C1906   1.409       .  A
C1905      C1910   1.408       .  A
C1906      C1907   1.398       .  A
C1906      H1919   1.083       .  S
C1907      C1908   1.399       .  A
C1907      H1920   1.084       .  S
C1908      C1909   1.401       .  A
C1908      C1911   1.442       .  S
C1909      C1910   1.401       .  A
C1909      H1921   1.083       .  S
C1910      H1922   1.083       .  S
C1911      C1912   1.208       .  T
C1912      C1913   1.443       .  S
C1913      C1914   1.401       .  A
C1913      C1918   1.399       .  A
C1914      C1915   1.401       .  A
C1914      H1923   1.083       .  S
C1915      C1916   1.409       .  A
C1915      H1924   1.083       .  S
C1916      C1917   1.409       .  A
C1917      C1918   1.398       .  A
C1917      H1925   1.083       .  S
C1918      H1926   1.084       .  S
C1927      C1928   1.406       .  A
C1927      C1932   1.407       .  A
C1928      C1929   1.395       .  A
C1928      H1941   1.083       .  S
C1929      C1930   1.399       .  A
C1929      H1942   1.084       .  S
C1930      C1931   1.402       .  A
C1930      C1933   1.443       .  S
C1931      C1932   1.404       .  A
C1931      H1943   1.083       .  S
C1932      H1944   1.083       .  S
C1933      C1934   1.208       .  T
C1934      C1935   1.443       .  S
C1935      C1936   1.401       .  A
C1935      C1940   1.399       .  A
C1936      C1937   1.404       .  A
C1936      H1945   1.083       .  S
C1937      C1938   1.408       .  A
C1937      H1946   1.083       .  S
C1938      C1939   1.407       .  A
C1939      C1940   1.396       .  A
C1939      H1947   1.083       .  S
C1940      H1948   1.084       .  S
C1949      C1950   1.409       .  A
C1949      C1954   1.408       .  A
C1950      C1951   1.398       .  A
C1950      H1963   1.083       .  S
C1951      C1952   1.398       .  A
C1951      H1964   1.084       .  S
C1952      C1953   1.402       .  A
C1952      C1955   1.445       .  S
C1953      C1954   1.403       .  A
C1953      H1965   1.083       .  S
C1954      H1966   1.083       .  S
C1955      C1956   1.209       .  T
C1956      C1957   1.445       .  S
C1957      C1958   1.398       .  A
C1957      C1962   1.403       .  A
C1958      C1959   1.397       .  A
C1958      H1967   1.084       .  S
C1959      C1960   1.409       .  A
C1959      H1968   1.083       .  S
C1960      C1961   1.407       .  A
C1961      C1962   1.404       .  A
C1961      H1969   1.083       .  S
C1962      H1970   1.083       .  S
C1971      C1972   1.406       .  A
C1971      C1976   1.406       .  A
C1972      C1973   1.395       .  A
C1972      H1985   1.084       .  S
C1973      C1974   1.399       .  A
C1973      H1986   1.084       .  S
C1974      C1975   1.402       .  A
C1974      C1977   1.441       .  S
C1975      C1976   1.403       .  A
C1975      H1987   1.083       .  S
C1976      H1988   1.083       .  S
C1977      C1978   1.207       .  T
C1978      C1979   1.441       .  S
C1979      C1980   1.401       .  A
C1979      C1984   1.399       .  A
C1980      C1981   1.402       .  A
C1980      H1989   1.083       .  S
C1981      C1982   1.407       .  A
C1981      H1990   1.083       .  S
C1982      C1983   1.406       .  A
C1983      C1984   1.396       .  A
C1983      H1991   1.083       .  S
C1984      H1992   1.084       .  S
C1993      C1994   1.408       .  A
C1993      C1998   1.409       .  A
C1994      C1995   1.398       .  A
C1994      H2007   1.083       .  S
C1995      C1996   1.399       .  A
C1995      H2008   1.083       .  S
C1996      C1997   1.399       .  A
C1996      C1999   1.438       .  S
C1997      C1998   1.397       .  A
C1997      H2009   1.084       .  S
C1998      H2010   1.083       .  S
C1999      C2000   1.205       .  T
C2000      C2001   1.438       .  S
C2001      C2002   1.400       .  A
C2001      C2006   1.398   1_455  A
C2002      C2003   1.399       .  A
C2002      H2011   1.083       .  S
C2003      C2004   1.408   1_455  A
C2003      H2012   1.083       .  S
C2004      C2005   1.409       .  A
C2005      C2006   1.397       .  A
C2005      H2013   1.083       .  S
C2006      H2014   1.084       .  S
C2015      C2016   1.407       .  A
C2015      C2020   1.409       .  A
C2016      C2017   1.402       .  A
C2016      H2029   1.083       .  S
C2017      C2018   1.402       .  A
C2017      H2030   1.083       .  S
C2018      C2019   1.397       .  A
C2018      C2021   1.441       .  S
C2019      C2020   1.396       .  A
C2019      H2031   1.084       .  S
C2020      H2032   1.083       .  S
C2021      C2022   1.207       .  T
C2022      C2023   1.441       .  S
C2023      C2024   1.401       .  A
C2023      C2028   1.398       .  A
C2024      C2025   1.401       .  A
C2024      H2033   1.083       .  S
C2025      C2026   1.408       .  A
C2025      H2034   1.083       .  S
C2026      C2027   1.410       .  A
C2027      C2028   1.397       .  A
C2027      H2035   1.083       .  S
C2028      H2036   1.084       .  S
C2037      C2038   1.407       .  A
C2037      C2042   1.406       .  A
C2038      C2039   1.405       .  A
C2038      H2051   1.083       .  S
C2039      C2040   1.403       .  A
C2039      H2052   1.083       .  S
C2040      C2041   1.400       .  A
C2040      C2043   1.446       .  S
C2041      C2042   1.397       .  A
C2041      H2053   1.084       .  S
C2042      H2054   1.083       .  S
C2043      C2044   1.210       .  T
C2044      C2045   1.446       .  S
C2045      C2046   1.400       .  A
C2045      C2050   1.403       .  A
C2046      C2047   1.396       .  A
C2046      H2055   1.084       .  S
C2047      C2048   1.405       .  A
C2047      H2056   1.083       .  S
C2048      C2049   1.407       .  A
C2049      C2050   1.405       .  A
C2049      H2057   1.083       .  S
C2050      H2058   1.083       .  S
C2059      C2060   1.407       .  A
C2059      C2064   1.408       .  A
C2060      C2061   1.402       .  A
C2060      H2073   1.083       .  S
C2061      C2062   1.402       .  A
C2061      H2074   1.083       .  S
C2062      C2063   1.396       .  A
C2062      C2065   1.438       .  S
C2063      C2064   1.394       .  A
C2063      H2075   1.084       .  S
C2064      H2076   1.083       .  S
C2065      C2066   1.205       .  T
C2066      C2067   1.439       .  S
C2067      C2068   1.401       .  A
C2067      C2072   1.397       .  A
C2068      C2069   1.401       .  A
C2068      H2077   1.083       .  S
C2069      C2070   1.408       .  A
C2069      H2078   1.083       .  S
C2070      C2071   1.409       .  A
C2071      C2072   1.396       .  A
C2071      H2079   1.083       .  S
C2072      H2080   1.084       .  S
C2081      C2082   1.407       .  A
C2081      C2086   1.410       .  A
C2082      C2083   1.403       .  A
C2082      H2095   1.083       .  S
C2083      C2084   1.403       .  A
C2083      H2096   1.083       .  S
C2084      C2085   1.396       .  A
C2084      C2087   1.441       .  S
C2085      C2086   1.395       .  A
C2085      H2097   1.084       .  S
C2086      H2098   1.083       .  S
C2087      C2088   1.207       .  T
C2088      C2089   1.441       .  S
C2089      C2090   1.402       .  A
C2089      C2094   1.397       .  A
C2090      C2091   1.402       .  A
C2090      H2099   1.083       .  S
C2091      C2092   1.408       .  A
C2091      H2100   1.083       .  S
C2092      C2093   1.409       .  A
C2093      C2094   1.395       .  A
C2093      H2101   1.083       .  S
C2094      H2102   1.084       .  S
C2103      C2104   1.408       .  A
C2103      C2108   1.406       .  A
C2104      C2105   1.406       .  A
C2104      H2117   1.083       .  S
C2105      C2106   1.403       .  A
C2105      H2118   1.083       .  S
C2106      C2107   1.399       .  A
C2106      C2109   1.446       .  S
C2107      C2108   1.396       .  A
C2107      H2119   1.084       .  S
C2108      H2120   1.083       .  S
C2109      C2110   1.210       .  T
C2110      C2111   1.446       .  S
C2111      C2112   1.403       .  A
C2111      C2116   1.400       .  A
C2112      C2113   1.405       .  A
C2112      H2121   1.083       .  S
C2113      C2114   1.407       .  A
C2113      H2122   1.083       .  S
C2114      C2115   1.406       .  A
C2115      C2116   1.397       .  A
C2115      H2123   1.083       .  S
C2116      H2124   1.084       .  S
C2125      C2126   1.407       .  A
C2125      C2130   1.409       .  A
C2126      C2127   1.401       .  A
C2126      H2139   1.083       .  S
C2127      C2128   1.402       .  A
C2127      H2140   1.083       .  S
C2128      C2129   1.397       .  A
C2128      C2131   1.440       .  S
C2129      C2130   1.396       .  A
C2129      H2141   1.084       .  S
C2130      H2142   1.083       .  S
C2131      C2132   1.206       .  T
C2132      C2133   1.439       .  S
C2133      C2134   1.400       .  A
C2133      C2138   1.398       .  A
C2134      C2135   1.400       .  A
C2134      H2143   1.083       .  S
C2135      C2136   1.408       .  A
C2135      H2144   1.083       .  S
C2136      C2137   1.409       .  A
C2137      C2138   1.396       .  A
C2137      H2145   1.083       .  S
C2138      H2146   1.084       .  S
C2147      C2148   1.407       .  A
C2147      C2152   1.409       .  A
C2148      C2149   1.401       .  A
C2148      H2161   1.083       .  S
C2149      C2150   1.401       .  A
C2149      H2162   1.083       .  S
C2150      C2151   1.398       .  A
C2150      C2153   1.441       .  S
C2151      C2152   1.397       .  A
C2151      H2163   1.084       .  S
C2152      H2164   1.083       .  S
C2153      C2154   1.207       .  T
C2154      C2155   1.441       .  S
C2155      C2156   1.401       .  A
C2155      C2160   1.398       .  A
C2156      C2157   1.401       .  A
C2156      H2165   1.083       .  S
C2157      C2158   1.408       .  A
C2157      H2166   1.083       .  S
C2158      C2159   1.410       .  A
C2159      C2160   1.397       .  A
C2159      H2167   1.083       .  S
C2160      H2168   1.084       .  S
C2169      C2170   1.410       .  A
C2169      C2174   1.408       .  A
C2170      C2171   1.402       .  A
C2170      H2183   1.083       .  S
C2171      C2172   1.401       .  A
C2171      H2184   1.083       .  S
C2172      C2173   1.399       .  A
C2172      C2175   1.444       .  S
C2173      C2174   1.398       .  A
C2173      H2185   1.084       .  S
C2174      H2186   1.083       .  S
C2175      C2176   1.208       .  T
C2176      C2177   1.444       .  S
C2177      C2178   1.400   1_545  A
C2177      C2182   1.400       .  A
C2178      C2179   1.399       .  A
C2178      H2187   1.084       .  S
C2179      C2180   1.408       .  A
C2179      H2188   1.083       .  S
C2180      C2181   1.410   1_565  A
C2181      C2182   1.401       .  A
C2181      H2189   1.083       .  S
C2182      H2190   1.083       .  S
C2191      C2192   1.406       .  A
C2191      C2196   1.408       .  A
C2192      C2193   1.395       .  A
C2192      H2205   1.083       .  S
C2193      C2194   1.399       .  A
C2193      H2206   1.084       .  S
C2194      C2195   1.405       .  A
C2194      C2197   1.447       .  S
C2195      C2196   1.408       .  A
C2195      H2207   1.083       .  S
C2196      H2208   1.083       .  S
C2197      C2198   1.211       .  T
C2198      C2199   1.447       .  S
C2199      C2200   1.404       .  A
C2199      C2204   1.397       .  A
C2200      C2201   1.409       .  A
C2200      H2209   1.083       .  S
C2201      C2202   1.410       .  A
C2201      H2210   1.083       .  S
C2202      C2203   1.408       .  A
C2203      C2204   1.394       .  A
C2203      H2211   1.083       .  S
C2204      H2212   1.084       .  S
C2213      C2214   1.405       .  A
C2213      C2218   1.405       .  A
C2214      C2215   1.395       .  A
C2214      H2227   1.084       .  S
C2215      C2216   1.399       .  A
C2215      H2228   1.084       .  S
C2216      C2217   1.404       .  A
C2216      C2219   1.444   1_545  S
C2217      C2218   1.405       .  A
C2217      H2229   1.083   1_545  S
C2218      H2230   1.083       .  S
C2219      C2220   1.209       .  T
C2220      C2221   1.444       .  S
C2221      C2222   1.402       .  A
C2221      C2226   1.398   1_565  A
C2222      C2223   1.405       .  A
C2222      H2231   1.083       .  S
C2223      C2224   1.409       .  A
C2223      H2232   1.083       .  S
C2224      C2225   1.408       .  A
C2225      C2226   1.395   1_565  A
C2225      H2233   1.083   1_565  S
C2226      H2234   1.084       .  S
C2235      C2236   1.407       .  A
C2235      C2240   1.408       .  A
C2236      C2237   1.394       .  A
C2236      H2249   1.083       .  S
C2237      C2238   1.398       .  A
C2237      H2250   1.084       .  S
C2238      C2239   1.403       .  A
C2238      C2241   1.444       .  S
C2239      C2240   1.406       .  A
C2239      H2251   1.083       .  S
C2240      H2252   1.083       .  S
C2241      C2242   1.209       .  T
C2242      C2243   1.444       .  S
C2243      C2244   1.403       .  A
C2243      C2248   1.399       .  A
C2244      C2245   1.405       .  A
C2244      H2253   1.083       .  S
C2245      C2246   1.408       .  A
C2245      H2254   1.083       .  S
C2246      C2247   1.406       .  A
C2247      C2248   1.395       .  A
C2247      H2255   1.083       .  S
C2248      H2256   1.084       .  S
C2257      C2258   1.410       .  A
C2257      C2262   1.408       .  A
C2258      C2259   1.408       .  A
C2258      H2271   1.083       .  S
C2259      C2260   1.404   1_655  A
C2259      H2272   1.083       .  S
C2260      C2261   1.398       .  A
C2260      C2263   1.446       .  S
C2261      C2262   1.394   1_455  A
C2261      H2273   1.084       .  S
C2262      H2274   1.083       .  S
C2263      C2264   1.210       .  T
C2264      C2265   1.446       .  S
C2265      C2266   1.397       .  A
C2265      C2270   1.404       .  A
C2266      C2267   1.393       .  A
C2266      H2275   1.084       .  S
C2267      C2268   1.407       .  A
C2267      H2276   1.083       .  S
C2268      C2269   1.408       .  A
C2269      C2270   1.408       .  A
C2269      H2277   1.083       .  S
C2270      H2278   1.083       .  S
C2279      C2280   1.408       .  A
C2279      C2284   1.409       .  A
C2280      C2281   1.395   1_565  A
C2280      H2293   1.083       .  S
C2281      C2282   1.398       .  A
C2281      H2294   1.084       .  S
C2282      C2283   1.403   1_545  A
C2282      C2285   1.445       .  S
C2283      C2284   1.406       .  A
C2283      H2295   1.083   1_556  S
C2284      H2296   1.083       .  S
C2285      C2286   1.209       .  T
C2286      C2287   1.445       .  S
C2287      C2288   1.405       .  A
C2287      C2292   1.398   1_556  A
C2288      C2289   1.407       .  A
C2288      H2297   1.083       .  S
C2289      C2290   1.406       .  A
C2289      H2298   1.083       .  S
C2290      C2291   1.406   1_556  A
C2291      C2292   1.394       .  A
C2291      H2299   1.084       .  S
C2292      H2300   1.084       .  S
C2301      C2302   1.408       .  A
C2301      C2306   1.409       .  A
C2302      C2303   1.400       .  A
C2302      H2315   1.083       .  S
C2303      C2304   1.400       .  A
C2303      H2316   1.083       .  S
C2304      C2305   1.400       .  A
C2304      C2307   1.445       .  S
C2305      C2306   1.401       .  A
C2305      H2317   1.083       .  S
C2306      H2318   1.083       .  S
C2307      C2308   1.209       .  T
C2308      C2309   1.445       .  S
C2309      C2310   1.401       .  A
C2309      C2314   1.399       .  A
C2310      C2311   1.402       .  A
C2310      H2319   1.083       .  S
C2311      C2312   1.410       .  A
C2311      H2320   1.083       .  S
C2312      C2313   1.408       .  A
C2313      C2314   1.399       .  A
C2313      H2321   1.083       .  S
C2314      H2322   1.084       .  S
C2323      C2324   1.409       .  A
C2323      C2328   1.407       .  A
C2324      C2325   1.405       .  A
C2324      H2337   1.083       .  S
C2325      C2326   1.403       .  A
C2325      H2338   1.083   1_545  S
C2326      C2327   1.399       .  A
C2326      C2329   1.446   1_545  S
C2327      C2328   1.396       .  A
C2327      H2339   1.084       .  S
C2328      H2340   1.083       .  S
C2329      C2330   1.210       .  T
C2330      C2331   1.446       .  S
C2331      C2332   1.398       .  A
C2331      C2336   1.404       .  A
C2332      C2333   1.395       .  A
C2332      H2341   1.084       .  S
C2333      C2334   1.407       .  A
C2333      H2342   1.084       .  S
C2334      C2335   1.406       .  A
C2335      C2336   1.406       .  A
C2335      H2343   1.083       .  S
C2336      H2344   1.083       .  S
C2345      C2346   1.410       .  A
C2345      C2350   1.408       .  A
C2346      C2347   1.398       .  A
C2346      H2359   1.083       .  S
C2347      C2348   1.398       .  A
C2347      H2360   1.084       .  S
C2348      C2349   1.402       .  A
C2348      C2351   1.445       .  S
C2349      C2350   1.403       .  A
C2349      H2361   1.083       .  S
C2350      H2362   1.083       .  S
C2351      C2352   1.209       .  T
C2352      C2353   1.446   1_655  S
C2353      C2354   1.398       .  A
C2353      C2358   1.403       .  A
C2354      C2355   1.399       .  A
C2354      H2363   1.084   1_455  S
C2355      C2356   1.410       .  A
C2355      H2364   1.083       .  S
C2356      C2357   1.408       .  A
C2357      C2358   1.404       .  A
C2357      H2365   1.083       .  S
C2358      H2366   1.083       .  S
C2367      C2368   1.409       .  A
C2367      C2372   1.407       .  A
C2368      C2369   1.408       .  A
C2368      H2381   1.083       .  S
C2369      C2370   1.404       .  A
C2369      H2382   1.083       .  S
C2370      C2371   1.398       .  A
C2370      C2373   1.447       .  S
C2371      C2372   1.395       .  A
C2371      H2383   1.084       .  S
C2372      H2384   1.083       .  S
C2373      C2374   1.210       .  T
C2374      C2375   1.446       .  S
C2375      C2376   1.398       .  A
C2375      C2380   1.405       .  A
C2376      C2377   1.394       .  A
C2376      H2385   1.084       .  S
C2377      C2378   1.408       .  A
C2377      H2386   1.083       .  S
C2378      C2379   1.408       .  A
C2379      C2380   1.408       .  A
C2379      H2387   1.083       .  S
C2380      H2388   1.083       .  S
C2389      C2390   1.406       .  A
C2389      C2394   1.408       .  A
C2390      C2391   1.397       .  A
C2390      H2403   1.083       .  S
C2391      C2392   1.399       .  A
C2391      H2404   1.084       .  S
C2392      C2393   1.403       .  A
C2392      C2395   1.446       .  S
C2393      C2394   1.406       .  A
C2393      H2405   1.083       .  S
C2394      H2406   1.083       .  S
C2395      C2396   1.210       .  T
C2396      C2397   1.446       .  S
C2397      C2398   1.403       .  A
C2397      C2402   1.400       .  A
C2398      C2399   1.405       .  A
C2398      H2407   1.083       .  S
C2399      C2400   1.408       .  A
C2399      H2408   1.083       .  S
C2400      C2401   1.406       .  A
C2401      C2402   1.397       .  A
C2401      H2409   1.083       .  S
C2402      H2410   1.084       .  S
C2411      C2412   1.405       .  A
C2411      C2416   1.405       .  A
C2412      C2413   1.395       .  A
C2412      H2425   1.084       .  S
C2413      C2414   1.399       .  A
C2413      H2426   1.084       .  S
C2414      C2415   1.404       .  A
C2414      C2417   1.443   1_565  S
C2415      C2416   1.405       .  A
C2415      H2427   1.083       .  S
C2416      H2428   1.083       .  S
C2417      C2418   1.208       .  T
C2418      C2419   1.443       .  S
C2419      C2420   1.402       .  A
C2419      C2424   1.398       .  A
C2420      C2421   1.405       .  A
C2420      H2429   1.083       .  S
C2421      C2422   1.409       .  A
C2421      H2430   1.083       .  S
C2422      C2423   1.408       .  A
C2423      C2424   1.395       .  A
C2423      H2431   1.083       .  S
C2424      H2432   1.084       .  S
C2433      C2434   1.406       .  A
C2433      C2438   1.409       .  A
C2434      C2435   1.402       .  A
C2434      H2447   1.083       .  S
C2435      C2436   1.402       .  A
C2435      H2448   1.083       .  S
C2436      C2437   1.398       .  A
C2436      C2439   1.442       .  S
C2437      C2438   1.397       .  A
C2437      H2449   1.084       .  S
C2438      H2450   1.083       .  S
C2439      C2440   1.207       .  T
C2440      C2441   1.442       .  S
C2441      C2442   1.399       .  A
C2441      C2446   1.401       .  A
C2442      C2443   1.397       .  A
C2442      H2451   1.084       .  S
C2443      C2444   1.408       .  A
C2443      H2452   1.083       .  S
C2444      C2445   1.408       .  A
C2445      C2446   1.401       .  A
C2445      H2453   1.083       .  S
C2446      H2454   1.083       .  S
C2455      C2456   1.409       .  A
C2455      C2460   1.408       .  A
C2456      C2457   1.406       .  A
C2456      H2469   1.083       .  S
C2457      C2458   1.403       .  A
C2457      H2470   1.083   1_556  S
C2458      C2459   1.398       .  A
C2458      C2461   1.446       .  S
C2459      C2460   1.395       .  A
C2459      H2471   1.084       .  S
C2460      H2472   1.083       .  S
C2461      C2462   1.210       .  T
C2462      C2463   1.446       .  S
C2463      C2464   1.399   1_556  A
C2463      C2468   1.404       .  A
C2464      C2465   1.396       .  A
C2464      H2473   1.084       .  S
C2465      C2466   1.405   1_554  A
C2465      H2474   1.084       .  S
C2466      C2467   1.406       .  A
C2467      C2468   1.406       .  A
C2467      H2475   1.083       .  S
C2468      H2476   1.083       .  S
C2477      C2478   1.409       .  A
C2477      C2482   1.409       .  A
C2478      C2479   1.398       .  A
C2478      H2491   1.083       .  S
C2479      C2480   1.399       .  A
C2479      H2492   1.084       .  S
C2480      C2481   1.400       .  A
C2480      C2483   1.441       .  S
C2481      C2482   1.400       .  A
C2481      H2493   1.083       .  S
C2482      H2494   1.083       .  S
C2483      C2484   1.206       .  T
C2484      C2485   1.441       .  S
C2485      C2486   1.400       .  A
C2485      C2490   1.398       .  A
C2486      C2487   1.400       .  A
C2486      H2495   1.083       .  S
C2487      C2488   1.408       .  A
C2487      H2496   1.083       .  S
C2488      C2489   1.409       .  A
C2489      C2490   1.397       .  A
C2489      H2497   1.083       .  S
C2490      H2498   1.084       .  S
C2499      C2500   1.408       .  A
C2499      C2504   1.409       .  A
C2500      C2501   1.395       .  A
C2500      H2513   1.083       .  S
C2501      C2502   1.398       .  A
C2501      H2514   1.084       .  S
C2502      C2503   1.403       .  A
C2502      C2505   1.445       .  S
C2503      C2504   1.406       .  A
C2503      H2515   1.083       .  S
C2504      H2516   1.083       .  S
C2505      C2506   1.209       .  T
C2506      C2507   1.444       .  S
C2507      C2508   1.404       .  A
C2507      C2512   1.399       .  A
C2508      C2509   1.405       .  A
C2508      H2517   1.083       .  S
C2509      C2510   1.405       .  A
C2509      H2518   1.083       .  S
C2510      C2511   1.405       .  A
C2511      C2512   1.396       .  A
C2511      H2519   1.084       .  S
C2512      H2520   1.084       .  S
C2521      C2522   1.410       .  A
C2521      C2526   1.407       .  A
C2522      C2523   1.394       .  A
C2522      H2535   1.083       .  S
C2523      C2524   1.396       .  A
C2523      H2536   1.084       .  S
C2524      C2525   1.401       .  A
C2524      C2527   1.438       .  S
C2525      C2526   1.401       .  A
C2525      H2537   1.083       .  S
C2526      H2538   1.083       .  S
C2527      C2528   1.205       .  T
C2528      C2529   1.439       .  S
C2529      C2530   1.397       .  A
C2529      C2534   1.402       .  A
C2530      C2531   1.395       .  A
C2530      H2539   1.084       .  S
C2531      C2532   1.409       .  A
C2531      H2540   1.083       .  S
C2532      C2533   1.406       .  A
C2533      C2534   1.401       .  A
C2533      H2541   1.083       .  S
C2534      H2542   1.083       .  S
C2543      C2544   1.407       .  A
C2543      C2548   1.408       .  A
C2544      C2545   1.402       .  A
C2544      H2557   1.083       .  S
C2545      C2546   1.402       .  A
C2545      H2558   1.083       .  S
C2546      C2547   1.396       .  A
C2546      C2549   1.439       .  S
C2547      C2548   1.394       .  A
C2547      H2559   1.084       .  S
C2548      H2560   1.083       .  S
C2549      C2550   1.205       .  T
C2550      C2551   1.438       .  S
C2551      C2552   1.400       .  A
C2551      C2556   1.398   1_655  A
C2552      C2553   1.399   1_655  A
C2552      H2561   1.084       .  S
C2553      C2554   1.408       .  A
C2553      H2562   1.083       .  S
C2554      C2555   1.408       .  A
C2555      C2556   1.397       .  A
C2555      H2563   1.083       .  S
C2556      H2564   1.084       .  S
C2565      C2566   1.406       .  A
C2565      C2570   1.407       .  A
C2566      C2567   1.408       .  A
C2566      H2579   1.083       .  S
C2567      C2568   1.406       .  A
C2567      H2580   1.083       .  S
C2568      C2569   1.398       .  A
C2568      C2571   1.447       .  S
C2569      C2570   1.395       .  A
C2569      H2581   1.084       .  S
C2570      H2582   1.084   1_455  S
C2571      C2572   1.211       .  T
C2572      C2573   1.447       .  S
C2573      C2574   1.399       .  A
C2573      C2578   1.403       .  A
C2574      C2575   1.396       .  A
C2574      H2583   1.084       .  S
C2575      C2576   1.408       .  A
C2575      H2584   1.083       .  S
C2576      C2577   1.409       .  A
C2577      C2578   1.407       .  A
C2577      H2585   1.083       .  S
C2578      H2586   1.083       .  S
C2587      C2588   1.406       .  A
C2587      C2592   1.408       .  A
C2588      C2589   1.397       .  A
C2588      H2601   1.083       .  S
C2589      C2590   1.400       .  A
C2589      H2602   1.084       .  S
C2590      C2591   1.403       .  A
C2590      C2593   1.447       .  S
C2591      C2592   1.405       .  A
C2591      H2603   1.083       .  S
C2592      H2604   1.083       .  S
C2593      C2594   1.211       .  T
C2594      C2595   1.447       .  S
C2595      C2596   1.403       .  A
C2595      C2600   1.400       .  A
C2596      C2597   1.405       .  A
C2596      H2605   1.083       .  S
C2597      C2598   1.408       .  A
C2597      H2606   1.083       .  S
C2598      C2599   1.407       .  A
C2599      C2600   1.398       .  A
C2599      H2607   1.083       .  S
C2600      H2608   1.084       .  S
C2609      C2610   1.405       .  A
C2609      C2614   1.406       .  A
C2610      C2611   1.406       .  A
C2610      H2623   1.083       .  S
C2611      C2612   1.405       .  A
C2611      H2624   1.083       .  S
C2612      C2613   1.398       .  A
C2612      C2615   1.444       .  S
C2613      C2614   1.394       .  A
C2613      H2625   1.084       .  S
C2614      H2626   1.084       .  S
C2615      C2616   1.209       .  T
C2616      C2617   1.445       .  S
C2617      C2618   1.399       .  A
C2617      C2622   1.402       .  A
C2618      C2619   1.396       .  A
C2618      H2627   1.084       .  S
C2619      C2620   1.408       .  A
C2619      H2628   1.083   1_556  S
C2620      C2621   1.408       .  A
C2621      C2622   1.405       .  A
C2621      H2629   1.083       .  S
C2622      H2630   1.083       .  S
C2631      C2632   1.408       .  A
C2631      C2636   1.409       .  A
C2632      C2633   1.399       .  A
C2632      H2645   1.083       .  S
C2633      C2634   1.400       .  A
C2633      H2646   1.083       .  S
C2634      C2635   1.399       .  A
C2634      C2637   1.440       .  S
C2635      C2636   1.398       .  A
C2635      H2647   1.084       .  S
C2636      H2648   1.083       .  S
C2637      C2638   1.206       .  T
C2638      C2639   1.440       .  S
C2639      C2640   1.401       .  A
C2639      C2644   1.398       .  A
C2640      C2641   1.401       .  A
C2640      H2649   1.083       .  S
C2641      C2642   1.407       .  A
C2641      H2650   1.083       .  S
C2642      C2643   1.409       .  A
C2643      C2644   1.397       .  A
C2643      H2651   1.083       .  S
C2644      H2652   1.084       .  S
C2653      C2654   1.408       .  A
C2653      C2658   1.408       .  A
C2654      C2655   1.398       .  A
C2654      H2667   1.083       .  S
C2655      C2656   1.399       .  A
C2655      H2668   1.084       .  S
C2656      C2657   1.399       .  A
C2656      C2659   1.438       .  S
C2657      C2658   1.398       .  A
C2657      H2669   1.084       .  S
C2658      H2670   1.083       .  S
C2659      C2660   1.205       .  T
C2660      C2661   1.438       .  S
C2661      C2662   1.397       .  A
C2661      C2666   1.401       .  A
C2662      C2663   1.394       .  A
C2662      H2671   1.084       .  S
C2663      C2664   1.408       .  A
C2663      H2672   1.083       .  S
C2664      C2665   1.407       .  A
C2665      C2666   1.401       .  A
C2665      H2673   1.083       .  S
C2666      H2674   1.083       .  S
C2675      C2676   1.409   1_556  A
C2675      C2680   1.408       .  A
C2676      C2677   1.406       .  A
C2676      H2689   1.083       .  S
C2677      C2678   1.403   1_554  A
C2677      H2690   1.083       .  S
C2678      C2679   1.398       .  A
C2678      C2681   1.445   1_556  S
C2679      C2680   1.395       .  A
C2679      H2691   1.084       .  S
C2680      H2692   1.083       .  S
C2681      C2682   1.209   1_455  T
C2682      C2683   1.445       .  S
C2683      C2684   1.398       .  A
C2683      C2688   1.405   1_554  A
C2684      C2685   1.394   1_554  A
C2684      H2693   1.084       .  S
C2685      C2686   1.406       .  A
C2685      H2694   1.083       .  S
C2686      C2687   1.407       .  A
C2687      C2688   1.407       .  A
C2687      H2695   1.083       .  S
C2688      H2696   1.083       .  S
C2697      C2698   1.408       .  A
C2697      C2702   1.409       .  A
C2698      C2699   1.398       .  A
C2698      H2711   1.083       .  S
C2699      C2700   1.399       .  A
C2699      H2712   1.083       .  S
C2700      C2701   1.398       .  A
C2700      C2703   1.438       .  S
C2701      C2702   1.397       .  A
C2701      H2713   1.084       .  S
C2702      H2714   1.083       .  S
C2703      C2704   1.205       .  T
C2704      C2705   1.437       .  S
C2705      C2706   1.398       .  A
C2705      C2710   1.400       .  A
C2706      C2707   1.396       .  A
C2706      H2715   1.084       .  S
C2707      C2708   1.408       .  A
C2707      H2716   1.083       .  S
C2708      C2709   1.408       .  A
C2709      C2710   1.399       .  A
C2709      H2717   1.083       .  S
C2710      H2718   1.083       .  S
C2719      C2720   1.406       .  A
C2719      C2724   1.408       .  A
C2720      C2721   1.397       .  A
C2720      H2733   1.083       .  S
C2721      C2722   1.399       .  A
C2721      H2734   1.084       .  S
C2722      C2723   1.404       .  A
C2722      C2725   1.448       .  S
C2723      C2724   1.407       .  A
C2723      H2735   1.083       .  S
C2724      H2736   1.083       .  S
C2725      C2726   1.211       .  T
C2726      C2727   1.448       .  S
C2727      C2728   1.403       .  A
C2727      C2732   1.400       .  A
C2728      C2729   1.406       .  A
C2728      H2737   1.083       .  S
C2729      C2730   1.409       .  A
C2729      H2738   1.083       .  S
C2730      C2731   1.407       .  A
C2731      C2732   1.398       .  A
C2731      H2739   1.083       .  S
C2732      H2740   1.084       .  S
C2741      C2742   1.407       .  A
C2741      C2746   1.407       .  A
C2742      C2743   1.408       .  A
C2742      H2755   1.083       .  S
C2743      C2744   1.405       .  A
C2743      H2756   1.083       .  S
C2744      C2745   1.399       .  A
C2744      C2747   1.448       .  S
C2745      C2746   1.395       .  A
C2745      H2757   1.084       .  S
C2746      H2758   1.083       .  S
C2747      C2748   1.211       .  T
C2748      C2749   1.448       .  S
C2749      C2750   1.398       .  A
C2749      C2754   1.404       .  A
C2750      C2751   1.395       .  A
C2750      H2759   1.084       .  S
C2751      C2752   1.408       .  A
C2751      H2760   1.083       .  S
C2752      C2753   1.410       .  A
C2753      C2754   1.409       .  A
C2753      H2761   1.083       .  S
C2754      H2762   1.083       .  S
C2763      C2764   1.406       .  A
C2763      C2768   1.406       .  A
C2764      C2765   1.395       .  A
C2764      H2777   1.084       .  S
C2765      C2766   1.399       .  A
C2765      H2778   1.084       .  S
C2766      C2767   1.404       .  A
C2766      C2769   1.444       .  S
C2767      C2768   1.405       .  A
C2767      H2779   1.083       .  S
C2768      H2780   1.083       .  S
C2769      C2770   1.209   1_565  T
C2770      C2771   1.444       .  S
C2771      C2772   1.403       .  A
C2771      C2776   1.398       .  A
C2772      C2773   1.406       .  A
C2772      H2781   1.083       .  S
C2773      C2774   1.409       .  A
C2773      H2782   1.083       .  S
C2774      C2775   1.408       .  A
C2775      C2776   1.394       .  A
C2775      H2783   1.083       .  S
C2776      H2784   1.084       .  S
C2785      C2786   1.407       .  A
C2785      C2790   1.406       .  A
C2786      C2787   1.406   1_565  A
C2786      H2799   1.083       .  S
C2787      C2788   1.404       .  A
C2787      H2800   1.083       .  S
C2788      C2789   1.399   1_545  A
C2788      C2791   1.447       .  S
C2789      C2790   1.396       .  A
C2789      H2801   1.084   1_565  S
C2790      H2802   1.083       .  S
C2791      C2792   1.210       .  T
C2792      C2793   1.446       .  S
C2793      C2794   1.401       .  A
C2793      C2798   1.402       .  A
C2794      C2795   1.398       .  A
C2794      H2803   1.084       .  S
C2795      C2796   1.405       .  A
C2795      H2804   1.083       .  S
C2796      C2797   1.408       .  A
C2797      C2798   1.404       .  A
C2797      H2805   1.083       .  S
C2798      H2806   1.083       .  S
C2807      C2808   1.408       .  A
C2807      C2812   1.409       .  A
C2808      C2809   1.396       .  A
C2808      H2821   1.083       .  S
C2809      C2810   1.399       .  A
C2809      H2822   1.084       .  S
C2810      C2811   1.402       .  A
C2810      C2813   1.443       .  S
C2811      C2812   1.404       .  A
C2811      H2823   1.083       .  S
C2812      H2824   1.083       .  S
C2813      C2814   1.208       .  T
C2814      C2815   1.443       .  S
C2815      C2816   1.404       .  A
C2815      C2820   1.399       .  A
C2816      C2817   1.404       .  A
C2816      H2825   1.083       .  S
C2817      C2818   1.405       .  A
C2817      H2826   1.083       .  S
C2818      C2819   1.404       .  A
C2819      C2820   1.395       .  A
C2819      H2827   1.084       .  S
C2820      H2828   1.084       .  S
C2829      C2830   1.407       .  A
C2829      C2834   1.407       .  A
C2830      C2831   1.394       .  A
C2830      H2843   1.083   1_545  S
C2831      C2832   1.398       .  A
C2831      H2844   1.084       .  S
C2832      C2833   1.405       .  A
C2832      C2835   1.445       .  S
C2833      C2834   1.408       .  A
C2833      H2845   1.083       .  S
C2834      H2846   1.083       .  S
C2835      C2836   1.210       .  T
C2836      C2837   1.446       .  S
C2837      C2838   1.403       .  A
C2837      C2842   1.399       .  A
C2838      C2839   1.406       .  A
C2838      H2847   1.083       .  S
C2839      C2840   1.410       .  A
C2839      H2848   1.083       .  S
C2840      C2841   1.407       .  A
C2841      C2842   1.395       .  A
C2841      H2849   1.083       .  S
C2842      H2850   1.084       .  S
C2851      C2852   1.407       .  A
C2851      C2856   1.410       .  A
C2852      C2853   1.395       .  A
C2852      H2865   1.083       .  S
C2853      C2854   1.398       .  A
C2853      H2866   1.084       .  S
C2854      C2855   1.400       .  A
C2854      C2857   1.439       .  S
C2855      C2856   1.401       .  A
C2855      H2867   1.083       .  S
C2856      H2868   1.083       .  S
C2857      C2858   1.205       .  T
C2858      C2859   1.439       .  S
C2859      C2860   1.398       .  A
C2859      C2864   1.400       .  A
C2860      C2861   1.397       .  A
C2860      H2869   1.084       .  S
C2861      C2862   1.409       .  A
C2861      H2870   1.083       .  S
C2862      C2863   1.408       .  A
C2863      C2864   1.400       .  A
C2863      H2871   1.083       .  S
C2864      H2872   1.083       .  S
C2873      C2874   1.409       .  A
C2873      C2878   1.409       .  A
C2874      C2875   1.396       .  A
C2874      H2887   1.083       .  S
C2875      C2876   1.398       .  A
C2875      H2888   1.084       .  S
C2876      C2877   1.405       .  A
C2876      C2879   1.450       .  S
C2877      C2878   1.409       .  A
C2877      H2889   1.083       .  S
C2878      H2890   1.083       .  S
C2879      C2880   1.212       .  T
C2880      C2881   1.449       .  S
C2881      C2882   1.403       .  A
C2881      C2886   1.401       .  A
C2882      C2883   1.405       .  A
C2882      H2891   1.083       .  S
C2883      C2884   1.408       .  A
C2883      H2892   1.083       .  S
C2884      C2885   1.406       .  A
C2885      C2886   1.399       .  A
C2885      H2893   1.083       .  S
C2886      H2894   1.084       .  S
C2895      C2896   1.406       .  A
C2895      C2900   1.406       .  A
C2896      C2897   1.396       .  A
C2896      H2909   1.084       .  S
C2897      C2898   1.399       .  A
C2897      H2910   1.084       .  S
C2898      C2899   1.404       .  A
C2898      C2901   1.446   1_655  S
C2899      C2900   1.406       .  A
C2899      H2911   1.083       .  S
C2900      H2912   1.083       .  S
C2901      C2902   1.210       .  T
C2902      C2903   1.446       .  S
C2903      C2904   1.403       .  A
C2903      C2908   1.399       .  A
C2904      C2905   1.405       .  A
C2904      H2913   1.083       .  S
C2905      C2906   1.410       .  A
C2905      H2914   1.083       .  S
C2906      C2907   1.407       .  A
C2907      C2908   1.396       .  A
C2907      H2915   1.083       .  S
C2908      H2916   1.084       .  S
C2917      C2918   1.409       .  A
C2917      C2922   1.407       .  A
C2918      C2919   1.396       .  A
C2918      H2931   1.083       .  S
C2919      C2920   1.398       .  A
C2919      H2932   1.084       .  S
C2920      C2921   1.399       .  A
C2920      C2923   1.437       .  S
C2921      C2922   1.398       .  A
C2921      H2933   1.083       .  S
C2922      H2934   1.083       .  S
C2923      C2924   1.204       .  T
C2924      C2925   1.437       .  S
C2925      C2926   1.397       .  A
C2925      C2930   1.400       .  A
C2926      C2927   1.396       .  A
C2926      H2935   1.084       .  S
C2927      C2928   1.408       .  A
C2927      H2936   1.083       .  S
C2928      C2929   1.407       .  A
C2929      C2930   1.399       .  A
C2929      H2937   1.083       .  S
C2930      H2938   1.083       .  S
C2939      C2940   1.407       .  A
C2939      C2944   1.404       .  A
C2940      C2941   1.396       .  A
C2940      H2953   1.084       .  S
C2941      C2942   1.399       .  A
C2941      H2954   1.084       .  S
C2942      C2943   1.404       .  A
C2942      C2945   1.445       .  S
C2943      C2944   1.405       .  A
C2943      H2955   1.083       .  S
C2944      H2956   1.083       .  S
C2945      C2946   1.209       .  T
C2946      C2947   1.445       .  S
C2947      C2948   1.403       .  A
C2947      C2952   1.398       .  A
C2948      C2949   1.406       .  A
C2948      H2957   1.083       .  S
C2949      C2950   1.408       .  A
C2949      H2958   1.083       .  S
C2950      C2951   1.409       .  A
C2951      C2952   1.395       .  A
C2951      H2959   1.083       .  S
C2952      H2960   1.084       .  S
C2961      C2962   1.408       .  A
C2961      C2966   1.407       .  A
C2962      C2963   1.404       .  A
C2962      H2975   1.083       .  S
C2963      C2964   1.402       .  A
C2963      H2976   1.083       .  S
C2964      C2965   1.400       .  A
C2964      C2967   1.447       .  S
C2965      C2966   1.398       .  A
C2965      H2977   1.084       .  S
C2966      H2978   1.083       .  S
C2967      C2968   1.210       .  T
C2968      C2969   1.447       .  S
C2969      C2970   1.400       .  A
C2969      C2974   1.403       .  A
C2970      C2971   1.397       .  A
C2970      H2979   1.084       .  S
C2971      C2972   1.405       .  A
C2971      H2980   1.083       .  S
C2972      C2973   1.406       .  A
C2973      C2974   1.405       .  A
C2973      H2981   1.083       .  S
C2974      H2982   1.083       .  S
C2983      C2984   1.407       .  A
C2983      C2988   1.408       .  A
C2984      C2985   1.407       .  A
C2984      H2997   1.083       .  S
C2985      C2986   1.404       .  A
C2985      H2998   1.083       .  S
C2986      C2987   1.398       .  A
C2986      C2989   1.446       .  S
C2987      C2988   1.395       .  A
C2987      H2999   1.084       .  S
C2988      H3000   1.083       .  S
C2989      C2990   1.210       .  T
C2990      C2991   1.446   1_655  S
C2991      C2992   1.398       .  A
C2991      C2996   1.404   1_455  A
C2992      C2993   1.395       .  A
C2992      H3001   1.084       .  S
C2993      C2994   1.408       .  A
C2993      H3002   1.083       .  S
C2994      C2995   1.409       .  A
C2995      C2996   1.407   1_455  A
C2995      H3003   1.083       .  S
C2996      H3004   1.083       .  S
C3005      C3006   1.407       .  A
C3005      C3010   1.408       .  A
C3006      C3007   1.394       .  A
C3006      H3019   1.083       .  S
C3007      C3008   1.397       .  A
C3007      H3020   1.084       .  S
C3008      C3009   1.405       .  A
C3008      C3011   1.445       .  S
C3009      C3010   1.408       .  A
C3009      H3021   1.083       .  S
C3010      H3022   1.083       .  S
C3011      C3012   1.210       .  T
C3012      C3013   1.446       .  S
C3013      C3014   1.403       .  A
C3013      C3018   1.398       .  A
C3014      C3015   1.407       .  A
C3014      H3023   1.083       .  S
C3015      C3016   1.409       .  A
C3015      H3024   1.083       .  S
C3016      C3017   1.407       .  A
C3017      C3018   1.394       .  A
C3017      H3025   1.083       .  S
C3018      H3026   1.084       .  S
C3027      C3028   1.410       .  A
C3027      C3032   1.409       .  A
C3028      C3029   1.401       .  A
C3028      H3041   1.083       .  S
C3029      C3030   1.401       .  A
C3029      H3042   1.083       .  S
C3030      C3031   1.401       .  A
C3030      C3033   1.448       .  S
C3031      C3032   1.402       .  A
C3031      H3043   1.083       .  S
C3032      H3044   1.083       .  S
C3033      C3034   1.211       .  T
C3034      C3035   1.448       .  S
C3035      C3036   1.401       .  A
C3035      C3040   1.400       .  A
C3036      C3037   1.403       .  A
C3036      H3045   1.083       .  S
C3037      C3038   1.410       .  A
C3037      H3046   1.083       .  S
C3038      C3039   1.409       .  A
C3039      C3040   1.401       .  A
C3039      H3047   1.083       .  S
C3040      H3048   1.083       .  S
C3049      C3050   1.408       .  A
C3049      C3054   1.407       .  A
C3050      C3051   1.393       .  A
C3050      H3063   1.083       .  S
C3051      C3052   1.396       .  A
C3051      H3064   1.084       .  S
C3052      C3053   1.402       .  A
C3052      C3055   1.437       .  S
C3053      C3054   1.401       .  A
C3053      H3065   1.083       .  S
C3054      H3066   1.083   1_455  S
C3055      C3056   1.204       .  T
C3056      C3057   1.437       .  S
C3057      C3058   1.398   1_565  A
C3057      C3062   1.400       .  A
C3058      C3059   1.396       .  A
C3058      H3067   1.084       .  S
C3059      C3060   1.409       .  A
C3059      H3068   1.083       .  S
C3060      C3061   1.407       .  A
C3061      C3062   1.399   1_545  A
C3061      H3069   1.083       .  S
C3062      H3070   1.083       .  S
C3071      C3072   1.409       .  A
C3071      C3076   1.406       .  A
C3072      C3073   1.405       .  A
C3072      H3085   1.083       .  S
C3073      C3074   1.402       .  A
C3073      H3086   1.083       .  S
C3074      C3075   1.399       .  A
C3074      C3077   1.444       .  S
C3075      C3076   1.395       .  A
C3075      H3087   1.084       .  S
C3076      H3088   1.083       .  S
C3077      C3078   1.209       .  T
C3078      C3079   1.444       .  S
C3079      C3080   1.399   1_455  A
C3079      C3084   1.403       .  A
C3080      C3081   1.394       .  A
C3080      H3089   1.084       .  S
C3081      C3082   1.405       .  A
C3081      H3090   1.084       .  S
C3082      C3083   1.406       .  A
C3083      C3084   1.405   1_655  A
C3083      H3091   1.083       .  S
C3084      H3092   1.083       .  S
C3093      C3094   1.407       .  A
C3093      C3098   1.406       .  A
C3094      C3095   1.407       .  A
C3094      H3107   1.083       .  S
C3095      C3096   1.404       .  A
C3095      H3108   1.083       .  S
C3096      C3097   1.398       .  A
C3096      C3099   1.445       .  S
C3097      C3098   1.394       .  A
C3097      H3109   1.084       .  S
C3098      H3110   1.083       .  S
C3099      C3100   1.209       .  T
C3100      C3101   1.445       .  S
C3101      C3102   1.398       .  A
C3101      C3106   1.403       .  A
C3102      C3103   1.394       .  A
C3102      H3111   1.084       .  S
C3103      C3104   1.407       .  A
C3103      H3112   1.083       .  S
C3104      C3105   1.409       .  A
C3105      C3106   1.406       .  A
C3105      H3113   1.083       .  S
C3106      H3114   1.083       .  S
C3115      C3116   1.407       .  A
C3115      C3120   1.408       .  A
C3116      C3117   1.394       .  A
C3116      H3129   1.083       .  S
C3117      C3118   1.398       .  A
C3117      H3130   1.084   1_655  S
C3118      C3119   1.402       .  A
C3118      C3121   1.442       .  S
C3119      C3120   1.405       .  A
C3119      H3131   1.083       .  S
C3120      H3132   1.083       .  S
C3121      C3122   1.207       .  T
C3122      C3123   1.441   1_655  S
C3123      C3124   1.403   1_455  A
C3123      C3128   1.398       .  A
C3124      C3125   1.405   1_655  A
C3124      H3133   1.083       .  S
C3125      C3126   1.406       .  A
C3125      H3134   1.083       .  S
C3126      C3127   1.406       .  A
C3127      C3128   1.393       .  A
C3127      H3135   1.084       .  S
C3128      H3136   1.084       .  S
C3137      C3138   1.409       .  A
C3137      C3142   1.408       .  A
C3138      C3139   1.397       .  A
C3138      H3151   1.083       .  S
C3139      C3140   1.398       .  A
C3139      H3152   1.084   1_545  S
C3140      C3141   1.403       .  A
C3140      C3143   1.443   1_545  S
C3141      C3142   1.403       .  A
C3141      H3153   1.083       .  S
C3142      H3154   1.083       .  S
C3143      C3144   1.208       .  T
C3144      C3145   1.443       .  S
C3145      C3146   1.400       .  A
C3145      C3150   1.400       .  A
C3146      C3147   1.399       .  A
C3146      H3155   1.083       .  S
C3147      C3148   1.408       .  A
C3147      H3156   1.083       .  S
C3148      C3149   1.408       .  A
C3149      C3150   1.401       .  A
C3149      H3157   1.083       .  S
C3150      H3158   1.083       .  S
C3159      C3160   1.410       .  A
C3159      C3164   1.408       .  A
C3160      C3161   1.397       .  A
C3160      H3173   1.083       .  S
C3161      C3162   1.398       .  A
C3161      H3174   1.084       .  S
C3162      C3163   1.401       .  A
C3162      C3165   1.441       .  S
C3163      C3164   1.401       .  A
C3163      H3175   1.083       .  S
C3164      H3176   1.083       .  S
C3165      C3166   1.207       .  T
C3166      C3167   1.442       .  S
C3167      C3168   1.398       .  A
C3167      C3172   1.402       .  A
C3168      C3169   1.396       .  A
C3168      H3177   1.084       .  S
C3169      C3170   1.409       .  A
C3169      H3178   1.083       .  S
C3170      C3171   1.407       .  A
C3171      C3172   1.402       .  A
C3171      H3179   1.083       .  S
C3172      H3180   1.083       .  S
C3181      C3182   1.405       .  A
C3181      C3186   1.406       .  A
C3182      C3183   1.396       .  A
C3182      H3195   1.083       .  S
C3183      C3184   1.400       .  A
C3183      H3196   1.084       .  S
C3184      C3185   1.402       .  A
C3184      C3187   1.443       .  S
C3185      C3186   1.403       .  A
C3185      H3197   1.083       .  S
C3186      H3198   1.083       .  S
C3187      C3188   1.208       .  T
C3188      C3189   1.444       .  S
C3189      C3190   1.402       .  A
C3189      C3194   1.399       .  A
C3190      C3191   1.404       .  A
C3190      H3199   1.083       .  S
C3191      C3192   1.408       .  A
C3191      H3200   1.083       .  S
C3192      C3193   1.407       .  A
C3193      C3194   1.396       .  A
C3193      H3201   1.083       .  S
C3194      H3202   1.084       .  S
C3203      C3204   1.408       .  A
C3203      C3208   1.409       .  A
C3204      C3205   1.395   1_565  A
C3204      H3217   1.083       .  S
C3205      C3206   1.398       .  A
C3205      H3218   1.084       .  S
C3206      C3207   1.405   1_545  A
C3206      C3209   1.448       .  S
C3207      C3208   1.409       .  A
C3207      H3219   1.083       .  S
C3208      H3220   1.083       .  S
C3209      C3210   1.211       .  T
C3210      C3211   1.448       .  S
C3211      C3212   1.405       .  A
C3211      C3216   1.400       .  A
C3212      C3213   1.407       .  A
C3212      H3221   1.083       .  S
C3213      C3214   1.407       .  A
C3213      H3222   1.083       .  S
C3214      C3215   1.406       .  A
C3215      C3216   1.397       .  A
C3215      H3223   1.083       .  S
C3216      H3224   1.084       .  S
C3225      C3226   1.409       .  A
C3225      C3230   1.408       .  A
C3226      C3227   1.396       .  A
C3226      H3239   1.083       .  S
C3227      C3228   1.398       .  A
C3227      H3240   1.084       .  S
C3228      C3229   1.400       .  A
C3228      C3231   1.439       .  S
C3229      C3230   1.400       .  A
C3229      H3241   1.083       .  S
C3230      H3242   1.083       .  S
C3231      C3232   1.205       .  T
C3232      C3233   1.439       .  S
C3233      C3234   1.398       .  A
C3233      C3238   1.401       .  A
C3234      C3235   1.397       .  A
C3234      H3243   1.084       .  S
C3235      C3236   1.408       .  A
C3235      H3244   1.083       .  S
C3236      C3237   1.407       .  A
C3237      C3238   1.400       .  A
C3237      H3245   1.083       .  S
C3238      H3246   1.083       .  S
C3247      C3248   1.409       .  A
C3247      C3252   1.407       .  A
C3248      C3249   1.398       .  A
C3248      H3261   1.083       .  S
C3249      C3250   1.399       .  A
C3249      H3262   1.084       .  S
C3250      C3251   1.402       .  A
C3250      C3253   1.444       .  S
C3251      C3252   1.402       .  A
C3251      H3263   1.083       .  S
C3252      H3264   1.083       .  S
C3253      C3254   1.209       .  T
C3254      C3255   1.444       .  S
C3255      C3256   1.400       .  A
C3255      C3260   1.400       .  A
C3256      C3257   1.400       .  A
C3256      H3265   1.084       .  S
C3257      C3258   1.411       .  A
C3257      H3266   1.083       .  S
C3258      C3259   1.408       .  A
C3259      C3260   1.401       .  A
C3259      H3267   1.083       .  S
C3260      H3268   1.083       .  S
C3269      C3270   1.408       .  A
C3269      C3274   1.409       .  A
C3270      C3271   1.397   1_655  A
C3270      H3283   1.083       .  S
C3271      C3272   1.399       .  A
C3271      H3284   1.084       .  S
C3272      C3273   1.402   1_455  A
C3272      C3275   1.446       .  S
C3273      C3274   1.405       .  A
C3273      H3285   1.083       .  S
C3274      H3286   1.083       .  S
C3275      C3276   1.210       .  T
C3276      C3277   1.445       .  S
C3277      C3278   1.405       .  A
C3277      C3282   1.398       .  A
C3278      C3279   1.407       .  A
C3278      H3287   1.083       .  S
C3279      C3280   1.406       .  A
C3279      H3288   1.083       .  S
C3280      C3281   1.406       .  A
C3281      C3282   1.394       .  A
C3281      H3289   1.084       .  S
C3282      H3290   1.084       .  S
C3291      C3292   1.409       .  A
C3291      C3296   1.408       .  A
C3292      C3293   1.399       .  A
C3292      H3305   1.083       .  S
C3293      C3294   1.400       .  A
C3293      H3306   1.084       .  S
C3294      C3295   1.400       .  A
C3294      C3297   1.442       .  S
C3295      C3296   1.400       .  A
C3295      H3307   1.083       .  S
C3296      H3308   1.083       .  S
C3297      C3298   1.207       .  T
C3298      C3299   1.442       .  S
C3299      C3300   1.400       .  A
C3299      C3304   1.399       .  A
C3300      C3301   1.401       .  A
C3300      H3309   1.083       .  S
C3301      C3302   1.410       .  A
C3301      H3310   1.083       .  S
C3302      C3303   1.406       .  A
C3303      C3304   1.397       .  A
C3303      H3311   1.083       .  S
C3304      H3312   1.083       .  S
