geometry optimzed in LAMMPS
_audit_creation_date              2020-12-01 
_audit_creation_method            'lammps2cif' 
_symmetry_space_group_name_H-M    'P1' 
_symmetry_Int_Tables_number       1 
_symmetry_cell_setting            triclinic 
loop_ 
_symmetry_equiv_pos_as_xyz 
  x,y,z 
_cell_length_a                    38.75381554 
_cell_length_b                    38.684192951952575 
_cell_length_c                    54.48866480507521 
_cell_angle_alpha                 89.91074570664199 
_cell_angle_beta                  90.4618950333187 
_cell_angle_gamma                 90.06287439659494 
loop_ 
_atom_site_label 
_atom_site_type_symbol 
_atom_site_fract_x 
_atom_site_fract_y 
_atom_site_fract_z 
_atom_site_charge 
Zn1        Zn  0.15889482  0.33835992  0.36310359     1.49700
Zn2        Zn  0.20294606  0.39201549  0.39552221     1.49400
Zn3        Zn  0.18428408  0.31653553  0.41663481     1.49100
Zn4        Zn  0.23790571  0.32492127  0.37330576     1.49500
O5          O  0.19577054  0.34312804  0.38733434    -1.83800
O6          O  0.14826111  0.38512064  0.34868062    -0.74400
O7          O  0.19914948  0.39960508  0.43253295    -0.74200
O8          O  0.13363003  0.30144824  0.41590797    -0.73700
O9          O  0.17227697  0.42307894  0.37423211    -0.74400
O10         O  0.11704288  0.31582153  0.37797143    -0.74000
O11         O  0.19537868  0.34575394  0.44652113    -0.74600
O12         O  0.25359161  0.28263213  0.39064291    -0.74000
O13         O  0.25172486  0.40688060  0.38648608    -0.74700
O14         O  0.21299780  0.27251987  0.41831543    -0.74100
O15         O  0.27595541  0.35934796  0.37163601    -0.74600
O16         O  0.23010525  0.30888282  0.33922428    -0.74500
O17         O  0.17316717  0.30932713  0.33421032    -0.74300
C18         C  0.15514065  0.41619947  0.35471078     0.77500
C19         C  0.19979296  0.37803653  0.45031879     0.78000
C20         C  0.11097631  0.30200286  0.39875244     0.76900
C21         C  0.24003219  0.26340854  0.40683212     0.77300
C22         C  0.27725104  0.39122019  0.37700500     0.78400
C23         C  0.20325387  0.30205948  0.32670768     0.77500
Zn24       Zn  0.28153548  0.12957432  0.13957535     1.49700
Zn25       Zn  0.25682027  0.16215485  0.09096049     1.49400
Zn26       Zn  0.31479731  0.19900807  0.12299699     1.49100
Zn27       Zn  0.33364513  0.12682084  0.09565388     1.49500
O28         O  0.29743318  0.15449052  0.11148655    -1.83800
O29         O  0.23751710  0.10529810  0.13372548    -0.74400
O30         O  0.24436185  0.21295574  0.08930649    -0.74200
O31         O  0.30499504  0.20679413  0.15887679    -0.73700
O32         O  0.21468325  0.13572528  0.10324419    -0.74400
O33         O  0.27234873  0.16113891  0.16720627    -0.74000
O34         O  0.28882931  0.23865584  0.10758729    -0.74600
O35         O  0.37846308  0.15563691  0.09522786    -0.74000
O36         O  0.26753936  0.14536000  0.05735222    -0.74700
O37         O  0.36540214  0.20330277  0.11624089    -0.74100
O38         O  0.31766707  0.11677610  0.05972272    -0.74600
O39         O  0.34453162  0.08250002  0.11663370    -0.74500
O40         O  0.31433664  0.09414723  0.15023036    -0.74300
C41         C  0.21204096  0.11303711  0.12011583     0.77500
C42         C  0.25975475  0.24022475  0.09660557     0.78000
C43         C  0.28423715  0.19065694  0.17276888     0.76900
C44         C  0.38701815  0.18466466  0.10476193     0.77300
C45         C  0.29125821  0.12746813  0.04752491     0.78400
C46         C  0.33599144  0.07579738  0.13884016     0.77500
Zn47       Zn  0.37524002  0.91658003  0.34272739     1.49700
Zn48       Zn  0.44912946  0.94251684  0.36294842     1.49400
Zn49       Zn  0.40022637  0.99727608  0.33724054     1.49100
Zn50       Zn  0.38090862  0.96789143  0.38830906     1.49500
O51         O  0.40103500  0.95547928  0.35732382    -1.83800
O52         O  0.40702701  0.87379083  0.34148990    -0.74400
O53         O  0.48165326  0.97273335  0.34458779    -0.74200
O54         O  0.38078446  0.98508608  0.30443149    -0.73700
O55         O  0.45788599  0.89291008  0.35528187    -0.74400
O56         O  0.36221551  0.93037994  0.30677063    -0.74000
O57         O  0.44807724  0.01580933  0.33216623    -0.74600
O58         O  0.35520784  0.01232898  0.38683534    -0.74000
O59         O  0.46396859  0.95157079  0.39752066    -0.74700
O60         O  0.37281260  0.03652822  0.35248905    -0.74100
O61         O  0.41710343  0.97464472  0.41398735    -0.74600
O62         O  0.34695304  0.93322717  0.39919365    -0.74500
O63         O  0.33343097  0.90358174  0.36536504    -0.74300
C64         C  0.43873321  0.86876253  0.34714084     0.77500
C65         C  0.47784774  0.00288603  0.33569260     0.78000
C66         C  0.36721113  0.95841815  0.29465248     0.76900
C67         C  0.35598120  0.03806247  0.37243088     0.77300
C68         C  0.44884963  0.96667305  0.41506262     0.78400
C69         C  0.32825946  0.91132535  0.38795675     0.77500
Zn70       Zn  0.62544556  0.07772554  0.65022867     1.49700
Zn71       Zn  0.55321739  0.05689712  0.62445282     1.49400
Zn72       Zn  0.62092122  0.02099712  0.60723755     1.49100
Zn73       Zn  0.58994880  0.00016162  0.65785785     1.49500
O74         O  0.59780151  0.03947149  0.63574897    -1.83800
O75         O  0.59486391  0.12186625  0.65224467    -0.74400
O76         O  0.54763414  0.05407102  0.58802376    -0.74200
O77         O  0.65868516  0.05141749  0.59638947    -0.73700
O78         O  0.54575278  0.10580372  0.63403858    -0.74400
O79         O  0.66714025  0.08970176  0.62634500    -0.74000
O80         O  0.58881322  0.01672086  0.57900416    -0.74600
O81         O  0.61412801  0.95616112  0.64579894    -0.74000
O82         O  0.51431812  0.02820457  0.63723778    -0.74700
O83         O  0.64015822  0.97404841  0.61192612    -0.74100
O84         O  0.53851065  0.98834232  0.66097973    -0.74600
O85         O  0.61015592  0.01279086  0.69072744    -0.74500
O86         O  0.63870038  0.06281245  0.68629174    -0.74300
C87         C  0.56421373  0.12851946  0.64464543     0.77500
C88         C  0.56190672  0.03347848  0.57311503     0.78000
C89         C  0.67485554  0.07708326  0.60523493     0.76900
C90         C  0.63347800  0.95056123  0.62739551     0.77300
C91         C  0.51181325  0.00171133  0.65093453     0.78400
C92         C  0.62915135  0.03687427  0.69943567     0.77500
Zn93       Zn  0.87667627  0.97867795  0.10408590     1.49700
Zn94       Zn  0.87227533  0.92281220  0.14826568     1.49400
Zn95       Zn  0.94356091  0.94369076  0.12360693     1.49100
Zn96       Zn  0.90356203  0.00199993  0.15457970     1.49500
O97         O  0.89869683  0.96133413  0.13342844    -1.83800
O98         O  0.83927920  0.94770465  0.09436922    -0.74400
O99         O  0.90172405  0.87769696  0.14948468    -0.74200
O100        O  0.95120138  0.94711803  0.08736234    -0.73700
O101        O  0.83060140  0.91104196  0.12537817    -0.74400
O102        O  0.90806405  0.98125921  0.07620665    -0.74000
O103        O  0.95126468  0.89437732  0.13307271    -0.74600
O104        O  0.95437241  0.01613569  0.15659167    -0.74000
O105        O  0.85929852  0.93750305  0.18382534    -0.74700
O106        O  0.98075116  0.97336173  0.13704888    -0.74100
O107        O  0.88590559  0.98871366  0.18774019    -0.74600
O108        O  0.87489811  0.04415741  0.14275211    -0.74500
O109        O  0.85764148  0.02571732  0.10652389    -0.74300
C110        C  0.82318052  0.92262488  0.10392590     0.77500
C111        C  0.93232190  0.87090395  0.14223474     0.78000
C112        C  0.93607503  0.96601241  0.07155379     0.76900
C113        C  0.98174662  0.00194971  0.14845571     0.77300
C114        C  0.86826956  0.96390447  0.19665297     0.78400
C115        C  0.85840803  0.04912010  0.12267806     0.77500
Zn116      Zn  0.05240859  0.05138586  0.86366100     1.49700
Zn117      Zn  0.10006062  0.99572857  0.83825238     1.49400
Zn118      Zn  0.12650611  0.07577786  0.84387027     1.49100
Zn119      Zn  0.11918022  0.02434400  0.88944949     1.49500
O120        O  0.09993734  0.03744538  0.85816932    -1.83800
O121        O  0.01910217  0.01740845  0.84919009    -0.74400
O122        O  0.11830525  0.00803104  0.80519165    -0.74200
O123        O  0.09415780  0.11791469  0.83902938    -0.73700
O124        O  0.05222824  0.97501335  0.83552853    -0.74400
O125        O  0.04321929  0.09978577  0.85234314    -0.74000
O126        O  0.14245879  0.06040592  0.80901549    -0.74600
O127        O  0.15094816  0.05975742  0.90175670    -0.74000
O128        O  0.13021179  0.95814510  0.85285270    -0.74700
O129        O  0.16590485  0.09035801  0.86875842    -0.74100
O130        O  0.14635617  0.98092790  0.88827811    -0.74600
O131        O  0.08260214  0.01704646  0.91406776    -0.74500
O132        O  0.03925840  0.04795967  0.89883077    -0.74300
C133        C  0.02262582  0.98691548  0.84088364     0.77500
C134        C  0.13505668  0.03342742  0.79629125     0.78000
C135        C  0.06217103  0.12338034  0.84327098     0.76900
C136        C  0.16945206  0.08261328  0.89159809     0.77300
C137        C  0.14702698  0.95632780  0.87296885     0.78400
C138        C  0.05242813  0.02946172  0.91570567     0.77500
Zn139      Zn  0.74611858  0.15627079  0.40384438     1.49700
Zn140      Zn  0.82537786  0.13085480  0.39740349     1.49400
Zn141      Zn  0.77400069  0.14110368  0.35149913     1.49100
Zn142      Zn  0.80042287  0.20667626  0.37945298     1.49500
O143        O  0.78708381  0.15830996  0.38346484    -1.83800
O144        O  0.75870537  0.13768826  0.43717809    -0.74400
O145        O  0.83796003  0.09069278  0.37299958    -0.74200
O146        O  0.72826684  0.11811456  0.35136707    -0.73700
O147        O  0.81177624  0.11575833  0.43324372    -0.74400
O148        O  0.70825758  0.12757847  0.38866143    -0.74000
O149        O  0.80743088  0.10673831  0.34005100    -0.74600
O150        O  0.79778135  0.22219737  0.34404504    -0.74000
O151        O  0.86850538  0.16224883  0.39950398    -0.74700
O152        O  0.77063087  0.17828291  0.32644377    -0.74100
O153        O  0.84860299  0.21494704  0.39130139    -0.74600
O154        O  0.76665138  0.23875576  0.39520500    -0.74500
O155        O  0.72440509  0.20318783  0.40629211    -0.74300
C156        C  0.78484637  0.12201745  0.44615730     0.77500
C157        C  0.82985569  0.08747018  0.35019818     0.78000
C158        C  0.70451291  0.11548208  0.36711553     0.76900
C159        C  0.78231614  0.20888952  0.32568604     0.77300
C160        C  0.87335703  0.19479665  0.39697064     0.78400
C161        C  0.73587662  0.23340537  0.40218790     0.77500
Zn162      Zn  0.73897697  0.34127245  0.12102146     1.49700
Zn163      Zn  0.70426268  0.40790546  0.09821236     1.49400
Zn164      Zn  0.68364820  0.32989669  0.07992500     1.49100
Zn165      Zn  0.66065911  0.35710615  0.13279940     1.49500
O166        O  0.69623907  0.35943706  0.10774160    -1.83800
O167        O  0.77789111  0.37397389  0.12016589    -0.74400
O168        O  0.70370049  0.41074208  0.06052264    -0.74200
O169        O  0.71050252  0.28413331  0.08091708    -0.73700
O170        O  0.75293673  0.42295264  0.10844226    -0.74400
O171        O  0.75311111  0.29685498  0.10679651    -0.74000
O172        O  0.69539398  0.35608314  0.04846540    -0.74600
O173        O  0.61924765  0.32990741  0.12056703    -0.74000
O174        O  0.67249123  0.44151912  0.11716301    -0.74700
O175        O  0.63324904  0.31500658  0.08237668    -0.74100
O176        O  0.64809582  0.40505490  0.14318876    -0.74600
O177        O  0.67804110  0.33509818  0.16417516    -0.74500
O178        O  0.73344325  0.32944826  0.15565545    -0.74300
C179        C  0.77920113  0.40618637  0.11611557     0.77500
C180        C  0.70297466  0.38759616  0.04370357     0.78000
C181        C  0.73778122  0.27576292  0.09271249     0.76900
C182        C  0.61222304  0.31477785  0.10033681     0.77300
C183        C  0.65420650  0.43589245  0.13618606     0.78400
C184        C  0.70863777  0.32706367  0.17051801     0.77500
Zn185      Zn  0.80615427  0.69249029  0.61396738     1.49700
Zn186      Zn  0.83079534  0.61886099  0.59316614     1.49400
Zn187      Zn  0.78470859  0.62395402  0.64159967     1.49100
Zn188      Zn  0.75017875  0.64342414  0.59218530     1.49500
O189        O  0.79371915  0.64399401  0.60983194    -1.83800
O190        O  0.85732215  0.70020305  0.60812732    -0.74400
O191        O  0.84431363  0.57510930  0.61395151    -0.74200
O192        O  0.78599649  0.65859860  0.66803747    -0.73700
O193        O  0.87441183  0.65008499  0.59208036    -0.74400
O194        O  0.79352616  0.70769906  0.64789070    -0.74000
O195        O  0.81749438  0.58686345  0.64903412    -0.74600
O196        O  0.71481245  0.61129439  0.60739012    -0.74000
O197        O  0.81343218  0.60808577  0.55765323    -0.74700
O198        O  0.73765343  0.60301381  0.64414899    -0.74100
O199        O  0.75924105  0.62813269  0.55787169    -0.74600
O200        O  0.72926134  0.69147989  0.59285207    -0.74500
O201        O  0.77616845  0.72445869  0.59390085    -0.74300
C202        C  0.88087899  0.68095432  0.59928264     0.77500
C203        C  0.83806856  0.56857575  0.63659217     0.78000
C204        C  0.78598252  0.69133354  0.66734725     0.76900
C205        C  0.71284565  0.59919846  0.62907697     0.77300
C206        C  0.78453953  0.61426808  0.54678928     0.78400
C207        C  0.74348363  0.72119942  0.59271820     0.77500
Zn208      Zn  0.72423359  0.86516165  0.85521703     1.49700
Zn209      Zn  0.66857744  0.86940844  0.89841148     1.49400
Zn210      Zn  0.68668997  0.79717399  0.87250798     1.49100
Zn211      Zn  0.74474978  0.83229245  0.90555133     1.49500
O212        O  0.70561999  0.84140918  0.88341902    -1.83800
O213        O  0.69693885  0.90662163  0.84678319    -0.74400
O214        O  0.62444439  0.83916782  0.90251028    -0.74200
O215        O  0.68798108  0.79184769  0.83593447    -0.73700
O216        O  0.65760321  0.91266281  0.87603609    -0.74400
O217        O  0.72428489  0.83429777  0.82642415    -0.74000
O218        O  0.63907145  0.78902481  0.88548321    -0.74600
O219        O  0.75591543  0.78120643  0.90809861    -0.74000
O220        O  0.68507757  0.88269772  0.93347751    -0.74700
O221        O  0.71671441  0.75807508  0.88334142    -0.74100
O222        O  0.73324327  0.85137313  0.93834113    -0.74600
O223        O  0.78945033  0.85493195  0.89428678    -0.74500
O224        O  0.77335845  0.87935898  0.85923952    -0.74300
C225        C  0.67178716  0.92287104  0.85605674     0.77500
C226        C  0.61748550  0.80776507  0.89685104     0.78000
C227        C  0.70821633  0.80676653  0.82103142     0.76900
C228        C  0.74329371  0.75515297  0.89694614     0.77300
C229        C  0.71025292  0.87156979  0.94671010     0.78400
C230        C  0.79641655  0.87243499  0.87515047     0.77500
Zn231      Zn  0.58017090  0.50928560  0.33878449     1.49700
Zn232      Zn  0.61642623  0.58500449  0.34571280     1.49400
Zn233      Zn  0.54350299  0.56674888  0.37145385     1.49100
Zn234      Zn  0.61073126  0.53045039  0.39006706     1.49500
O235        O  0.58793564  0.54833118  0.36098429    -1.93400
O236        O  0.59880016  0.52092243  0.30556611    -0.74400
O237        O  0.58759156  0.62955451  0.34265068    -0.74200
O238        O  0.50460239  0.53772302  0.35849693    -0.73700
O239        O  0.62882078  0.56990718  0.31019395    -0.74400
O240        O  0.52938086  0.49719681  0.33605923    -0.74000
O241        O  0.53776458  0.61589811  0.36033319    -0.74600
O242        O  0.57979283  0.52895572  0.41880686    -0.74000
O243        O  0.65937549  0.59578468  0.36807955    -0.74700
O244        O  0.53627147  0.56302487  0.40795633    -0.74100
O245        O  0.65069233  0.55902337  0.39895680    -0.74600
O246        O  0.62749952  0.48252352  0.38632942    -0.74500
O247        O  0.60437492  0.46575189  0.35087921    -0.74300
C248        C  0.61815319  0.54458682  0.29697295     0.77500
C249        C  0.55699299  0.63747661  0.34920450     0.78000
C250        C  0.50259334  0.51038203  0.34565062     0.76900
C251        C  0.55160038  0.54395005  0.42362216     0.77300
C252        C  0.66780171  0.58318151  0.38907642     0.78400
C253        C  0.62203898  0.45959660  0.37019913     0.77500
Zn254      Zn  0.43264928  0.42993073  0.66767211     1.49700
Zn255      Zn  0.40953731  0.41501851  0.61300880     1.49400
Zn256      Zn  0.35701873  0.45337022  0.64852829     1.49100
Zn257      Zn  0.42525242  0.49196657  0.63270776     1.49500
O258        O  0.40559992  0.44702393  0.64027939    -1.83800
O259        O  0.44348619  0.37924258  0.66381995    -0.74400
O260        O  0.36209074  0.40631181  0.59890310    -0.74200
O261        O  0.35205131  0.44906995  0.68574751    -0.73700
O262        O  0.43227502  0.36978304  0.62418931    -0.74400
O263        O  0.40622793  0.43987559  0.69851025    -0.74000
O264        O  0.32507213  0.42306395  0.62729956    -0.74600
O265        O  0.39089161  0.53005895  0.63219568    -0.74000
O266        O  0.43640305  0.43698970  0.58531829    -0.74700
O267        O  0.34191400  0.50233961  0.63973061    -0.74100
O268        O  0.44390323  0.49042329  0.59920807    -0.74600
O269        O  0.46589135  0.50526634  0.65325222    -0.74500
O270        O  0.47925140  0.45409622  0.66907598    -0.74300
C271        C  0.44396245  0.35970195  0.64500688     0.77500
C272        C  0.33117475  0.40989116  0.60628253     0.78000
C273        C  0.37468555  0.44681235  0.70292714     0.76900
C274        C  0.35829641  0.52976964  0.63409289     0.77300
C275        C  0.44697604  0.46793367  0.58246398     0.78400
C276        C  0.48740045  0.48494583  0.66334848     0.77500
Zn277      Zn  0.16836438  0.83415825  0.63324801     1.49700
Zn278      Zn  0.19027718  0.80883140  0.58142065     1.49400
Zn279      Zn  0.20660938  0.88841841  0.59730026     1.49100
Zn280      Zn  0.24483167  0.82828591  0.62311563     1.49500
O281        O  0.20181214  0.84055300  0.60764349    -1.83800
O282        O  0.12456036  0.81065997  0.62075681    -0.74400
O283        O  0.20181808  0.83356664  0.54939410    -0.74200
O284        O  0.17387255  0.91880545  0.61769974    -0.73700
O285        O  0.13932808  0.79341466  0.58334475    -0.74400
O286        O  0.15919724  0.88155879  0.64705783    -0.74000
O287        O  0.20323371  0.88946618  0.55936684    -0.74600
O288        O  0.28404707  0.86061932  0.61750097    -0.74000
O289        O  0.21877532  0.76490204  0.58573175    -0.74700
O290        O  0.25471406  0.90753927  0.60672915    -0.74100
O291        O  0.25707356  0.77962751  0.61466543    -0.74600
O292        O  0.23947467  0.82924814  0.65928880    -0.74500
O293        O  0.18873005  0.80444323  0.66054776    -0.74300
C294        C  0.11733202  0.79514257  0.60070132     0.77500
C295        C  0.20524114  0.86535938  0.54326710     0.78000
C296        C  0.16164826  0.91249797  0.63904765     0.76900
C297        C  0.28258115  0.89299695  0.61388599     0.77300
C298        C  0.24384238  0.75749919  0.60012706     0.78400
C299        C  0.21811234  0.80999177  0.67024816     0.77500
Zn300      Zn  0.32253892  0.69063662  0.87472243     1.49700
Zn301      Zn  0.26295086  0.65233982  0.90392211     1.49400
Zn302      Zn  0.28868808  0.62328843  0.85527333     1.49100
Zn303      Zn  0.34018251  0.61823256  0.90138004     1.49500
O304        O  0.30442322  0.64585542  0.88458768    -1.83800
O305        O  0.29445699  0.72877349  0.88884872    -0.74400
O306        O  0.22120133  0.62655841  0.89080372    -0.74200
O307        O  0.28193465  0.65680899  0.82785028    -0.73700
O308        O  0.24969492  0.70203008  0.90555508    -0.74400
O309        O  0.31705597  0.69950945  0.83856397    -0.74000
O310        O  0.24370626  0.59963144  0.85914013    -0.74600
O311        O  0.34938917  0.57359304  0.88035703    -0.74000
O312        O  0.27217384  0.63582852  0.93764772    -0.74700
O313        O  0.32041574  0.58647274  0.84593293    -0.74100
O314        O  0.32301736  0.60852946  0.93714608    -0.74600
O315        O  0.38541035  0.64728923  0.90359618    -0.74500
O316        O  0.37168079  0.69688743  0.88502169    -0.74300
C317        C  0.26496795  0.72947973  0.89885016     0.77500
C318        C  0.21836239  0.60545416  0.87304280     0.78000
C319        C  0.29604013  0.68575955  0.82342629     0.76900
C320        C  0.34048439  0.56688472  0.85809215     0.77300
C321        C  0.29584666  0.61871727  0.94839194     0.78400
C322        C  0.39326642  0.67781941  0.89634555     0.77500
Zn323      Zn  0.90844135  0.40897658  0.87933748     1.49700
Zn324      Zn  0.93868432  0.43292159  0.82879411     1.49400
Zn325      Zn  0.86032222  0.45474326  0.84397900     1.49100
Zn326      Zn  0.92454114  0.48701527  0.87129703     1.49500
O327        O  0.90772246  0.44581184  0.85528433    -1.83800
O328        O  0.92532525  0.36387056  0.86473882    -0.74400
O329        O  0.91352909  0.44257666  0.79654939    -0.74200
O330        O  0.82556863  0.42763205  0.86515944    -0.73700
O331        O  0.95267534  0.38170741  0.83156549    -0.74400
O332        O  0.86086571  0.40483822  0.89315344    -0.74000
O333        O  0.85823131  0.44767216  0.80652735    -0.74600
O334        O  0.89136256  0.52602650  0.87100300    -0.74000
O335        O  0.98288224  0.46166841  0.83037179    -0.74700
O336        O  0.84594784  0.50486450  0.85105004    -0.74100
O337        O  0.96932645  0.50169054  0.85782755    -0.74600
O338        O  0.93560212  0.47824372  0.90610179    -0.74500
O339        O  0.93897318  0.42102011  0.90849346    -0.74300
C340        C  0.94480422  0.35753518  0.84653985     0.77500
C341        C  0.88193507  0.44669987  0.79027139     0.78000
C342        C  0.83057534  0.41282279  0.88591116     0.76900
C343        C  0.86073098  0.52917458  0.86293950     0.77300
C344        C  0.99050452  0.48849768  0.84288622     0.78400
C345        C  0.94392399  0.45093873  0.91755214     0.77500
Zn346      Zn  0.08690571  0.58215676  0.10709590     1.49700
Zn347      Zn  0.07834173  0.50380183  0.12507497     1.49400
Zn348      Zn  0.14174173  0.54464668  0.14299345     1.49100
Zn349      Zn  0.06413817  0.56529363  0.16037924     1.49500
O350        O  0.09335936  0.54998673  0.13392571    -1.83800
O351        O  0.05910591  0.55907384  0.07991178    -0.74400
O352        O  0.11351887  0.46659830  0.12806162    -0.74200
O353        O  0.17158512  0.57932768  0.12382875    -0.73700
O354        O  0.06543613  0.50393620  0.08994661    -0.74400
O355        O  0.13454339  0.59278973  0.09379391    -0.74000
O356        O  0.16090217  0.49803538  0.13124644    -0.74600
O357        O  0.08874779  0.55280502  0.19195457    -0.74000
O358        O  0.03488644  0.48936923  0.14135996    -0.74700
O359        O  0.14351380  0.54320868  0.18079512    -0.74100
O360        O  0.01871149  0.53910741  0.15805543    -0.74600
O361        O  0.05150748  0.61656402  0.15769247    -0.74500
O362        O  0.06176879  0.62636995  0.11813511    -0.74300
C363        C  0.05534779  0.52705268  0.07503065     0.77500
C364        C  0.14608497  0.46922021  0.12701916     0.78000
C365        C  0.16533970  0.59142645  0.10232885     0.76900
C366        C  0.11979489  0.54418425  0.19711002     0.77300
C367        C  0.01195683  0.50856876  0.15066913     0.78400
C368        C  0.04989113  0.63615004  0.13882404     0.77500
C369        C  0.03853393  0.51568219  0.05185479     0.01700
C370        C  0.04349331  0.53413854  0.02969281     0.04500
C371        C  0.02760222  0.52260372  0.00788139    -0.11500
C372        C  0.00898467  0.49132216  0.00766437     0.23800
C373        C  0.00486252  0.47230815  0.02942732    -0.12100
C374        C  0.01816351  0.48510672  0.05163332     0.05200
C375        C  0.99230394  0.47891857  0.98482693     0.27600
C376        C  0.95624784  0.48188090  0.98202840    -0.12800
C377        C  0.94004051  0.46894626  0.96086949     0.05700
C378        C  0.95995897  0.45525927  0.94175524    -0.08800
C379        C  0.99598849  0.45232966  0.94442900     0.06600
C380        C  0.01211030  0.46336816  0.96625781    -0.13100
Br381      Br  0.98073802  0.42848230  0.02867956    -0.05200
Br382      Br  0.07354330  0.57400011  0.02833012     0.00400
Br383      Br  0.89044500  0.46975817  0.95793528     0.00900
Br384      Br  0.06130915  0.45806423  0.97048239    -0.03500
Br385      Br  0.00583569  0.46117116  0.08156925     0.01000
Br386      Br  0.03077620  0.54989228  0.97826813    -0.02800
Br387      Br  0.92926462  0.50511376  0.00666636    -0.03700
Br388      Br  0.02331971  0.43541870  0.91756367     0.00300
C389        C  0.02519140  0.50427427  0.84171359     0.01700
C390        C  0.05490184  0.48394820  0.84617950     0.04500
C391        C  0.08686104  0.50007799  0.85085598    -0.11500
C392        C  0.08916978  0.53639395  0.85128184     0.23800
C393        C  0.05996836  0.55665569  0.84580033    -0.12100
C394        C  0.02816886  0.54065601  0.84071936     0.05200
C395        C  0.12245972  0.55345465  0.85706516     0.27600
C396        C  0.13277363  0.55849685  0.88164244    -0.12800
C397        C  0.16405860  0.57550974  0.88705441     0.05700
C398        C  0.18506078  0.58786402  0.86777231    -0.08800
C399        C  0.17419448  0.58298452  0.84306802     0.06600
C400        C  0.14325973  0.56543577  0.83785044    -0.13100
Br401      Br  0.06342222  0.60646569  0.84611318    -0.05200
Br402      Br  0.05180321  0.43418325  0.84786313     0.00400
Br403      Br  0.17816856  0.58037088  0.92096697     0.00900
Br404      Br  0.12891105  0.55778524  0.80423510    -0.03500
Br405      Br  0.98863183  0.56878159  0.83227645     0.01000
Br406      Br  0.12745260  0.47266013  0.85761102    -0.02800
Br407      Br  0.10384930  0.54186348  0.90786285    -0.03700
Br408      Br  0.19997183  0.60195355  0.81588113     0.00300
C409        C  0.19423151  0.60163809  0.08566423     0.01700
C410        C  0.18981972  0.62954391  0.06907034     0.04500
C411        C  0.21190871  0.63336349  0.04874262    -0.11500
C412        C  0.23968624  0.61033478  0.04536095     0.23800
C413        C  0.24666947  0.58519173  0.06345742    -0.12100
C414        C  0.22372305  0.58019660  0.08318253     0.05200
C415        C  0.25887922  0.60978898  0.02159650     0.27600
C416        C  0.25117813  0.58396414  0.00404605    -0.12800
C417        C  0.26738230  0.58424302  0.98097769     0.05700
C418        C  0.29003431  0.61123847  0.97468028    -0.08800
C419        C  0.29859690  0.63645285  0.99239615     0.06600
C420        C  0.28375344  0.63526272  0.01599007    -0.13100
Br421      Br  0.28694656  0.55625654  0.06017072    -0.05200
Br422      Br  0.15331095  0.66272422  0.07401311     0.00400
Br423      Br  0.25715885  0.54870618  0.95721662     0.00900
Br424      Br  0.29627549  0.66940607  0.04022010    -0.03500
Br425      Br  0.23138036  0.54128179  0.10478398     0.01000
Br426      Br  0.20271094  0.66889526  0.02464813    -0.02800
Br427      Br  0.21625914  0.54969104  0.01080637    -0.03700
Br428      Br  0.32860830  0.67415971  0.98351436     0.00300
C429        C  0.22873627  0.79330868  0.69379126     0.01700
C430        C  0.20366634  0.78179851  0.71087232     0.04500
C431        C  0.21404561  0.76325915  0.73191008    -0.11500
C432        C  0.24929486  0.75859792  0.73711462     0.23800
C433        C  0.27434837  0.77202134  0.72132375    -0.12100
C434        C  0.26436981  0.78782683  0.69920628     0.05200
C435        C  0.26052726  0.73966146  0.75930389     0.27600
C436        C  0.26324659  0.75718829  0.78179490    -0.12800
C437        C  0.27531336  0.73968692  0.80274074     0.05700
C438        C  0.28589541  0.70475930  0.80100996    -0.08800
C439        C  0.28378423  0.68750049  0.77822573     0.06600
C440        C  0.27067141  0.70483933  0.75748644    -0.13100
Br441      Br  0.32263128  0.76868901  0.73040945    -0.05200
Br442      Br  0.15525397  0.79263444  0.70688922     0.00400
Br443      Br  0.27493240  0.76346496  0.83388564     0.00900
Br444      Br  0.26676100  0.68118505  0.72639365    -0.03500
Br445      Br  0.30088299  0.79912395  0.67640602     0.01000
Br446      Br  0.18008818  0.74391253  0.75376868    -0.02800
Br447      Br  0.25070453  0.80541994  0.78362854    -0.03700
Br448      Br  0.30026081  0.64067223  0.77497614     0.00300
C449        C  0.33927645  0.56193778  0.62871278     0.01700
C450        C  0.34604198  0.59206829  0.64247247     0.04500
C451        C  0.32961993  0.62331579  0.63621608    -0.11500
C452        C  0.30581465  0.62439040  0.61652240     0.23800
C453        C  0.29909594  0.59432260  0.60273536    -0.12100
C454        C  0.31639097  0.56334875  0.60846742     0.05200
C455        C  0.28781754  0.65719722  0.61048934     0.27600
C456        C  0.25921141  0.66753344  0.62446968    -0.12800
C457        C  0.24395984  0.69997703  0.62028313     0.05700
C458        C  0.25665846  0.72178676  0.60167499    -0.08800
C459        C  0.28409261  0.71078885  0.58686846     0.06600
C460        C  0.30006429  0.67872176  0.59151468    -0.13100
Br461      Br  0.26640133  0.59578372  0.57586451    -0.05200
Br462      Br  0.37766956  0.59053387  0.67000340     0.00400
Br463      Br  0.20636530  0.71521072  0.64063415     0.00900
Br464      Br  0.33977095  0.66497647  0.57279756    -0.03500
Br465      Br  0.31117926  0.52384830  0.58717110     0.01000
Br466      Br  0.34011428  0.66493837  0.65431066    -0.02800
Br467      Br  0.24172419  0.63759896  0.64988516    -0.03700
Br468      Br  0.30013815  0.74014748  0.56072150     0.00300
C469        C  0.36526766  0.45553503  0.72854962     0.01700
C470        C  0.37716289  0.43493779  0.74833700     0.04500
C471        C  0.37462412  0.44703622  0.77267439    -0.11500
C472        C  0.36008991  0.47967098  0.77739302     0.23800
C473        C  0.34636258  0.49934356  0.75782331    -0.12100
C474        C  0.34886700  0.48740261  0.73350950     0.05200
C475        C  0.35945871  0.49409490  0.80272412     0.27600
C476        C  0.32937910  0.49109136  0.81687248    -0.12800
C477        C  0.32540679  0.51159882  0.83798874     0.05700
C478        C  0.35141847  0.53530430  0.84503156    -0.08800
C479        C  0.38306527  0.53520063  0.83253479     0.06600
C480        C  0.38704151  0.51479755  0.81128850    -0.13100
Br481      Br  0.32529183  0.54358352  0.76434429    -0.05200
Br482      Br  0.39643527  0.38983565  0.74215857     0.00400
Br483      Br  0.28261357  0.51019429  0.85584695     0.00900
Br484      Br  0.42884082  0.51781543  0.79244331    -0.03500
Br485      Br  0.33215618  0.51652333  0.70709804     0.01000
Br486      Br  0.39166555  0.41943686  0.79962209    -0.02800
Br487      Br  0.29225181  0.46160024  0.80574365    -0.03700
Br488      Br  0.41941855  0.56579885  0.84308974     0.00300
C489        C  0.53548924  0.53685422  0.44740552     0.01700
C490        C  0.50349022  0.51943598  0.44799573     0.04500
C491        C  0.48998544  0.50840231  0.47050512    -0.11500
C492        C  0.50831656  0.51487328  0.49242701     0.23800
C493        C  0.54000057  0.53268806  0.49194400    -0.12100
C494        C  0.55374089  0.54346393  0.46939632     0.05200
C495        C  0.49376427  0.50315530  0.51596189     0.27600
C496        C  0.46843761  0.52328730  0.52741929    -0.12800
C497        C  0.45217416  0.51098258  0.54859874     0.05700
C498        C  0.46241567  0.47904355  0.55909519    -0.08800
C499        C  0.48824295  0.45909880  0.54771563     0.06600
C500        C  0.50365939  0.47108355  0.52602862    -0.13100
Br501      Br  0.56455276  0.54188218  0.52218870    -0.05200
Br502      Br  0.47927973  0.50818042  0.41790458     0.00400
Br503      Br  0.41421459  0.53722980  0.56198991     0.00900
Br504      Br  0.53840301  0.44371775  0.50996905    -0.03500
Br505      Br  0.59746770  0.56737842  0.46860591     0.01000
Br506      Br  0.44679072  0.48344492  0.47141379    -0.02800
Br507      Br  0.45609941  0.56783027  0.51389132    -0.03700
Br508      Br  0.50361808  0.41603119  0.56200566     0.00300
C509        C  0.58364623  0.79185518  0.90312654     0.01700
C510        C  0.58266144  0.76138375  0.91748523     0.04500
C511        C  0.55193579  0.74189309  0.91922631    -0.11500
C512        C  0.52195299  0.75264845  0.90657783     0.23800
C513        C  0.52227728  0.78427183  0.89362490    -0.12100
C514        C  0.55289385  0.80396582  0.89211405     0.05200
C515        C  0.49052066  0.73019638  0.90582890     0.27600
C516        C  0.48598984  0.70622122  0.88655982    -0.12800
C517        C  0.45463404  0.68793462  0.88398884     0.05700
C518        C  0.42801899  0.69253181  0.90115253    -0.08800
C519        C  0.43297275  0.71566777  0.92086558     0.06600
C520        C  0.46411112  0.73439600  0.92322368    -0.13100
Br521      Br  0.48094757  0.79972654  0.87700231    -0.05200
Br522      Br  0.62338711  0.74670062  0.93518867     0.00400
Br523      Br  0.44694169  0.65879876  0.85580605     0.00900
Br524      Br  0.47021821  0.76685200  0.94971280    -0.03500
Br525      Br  0.55304629  0.84660650  0.87385448     0.01000
Br526      Br  0.55095548  0.69990964  0.93835369    -0.02800
Br527      Br  0.52246172  0.69942237  0.86318127    -0.03700
Br528      Br  0.39610921  0.72317459  0.94379984     0.00300
C529        C  0.76099176  0.72113455  0.89798224     0.01700
C530        C  0.74139366  0.69024173  0.89873055     0.04500
C531        C  0.75733422  0.65815090  0.89450287    -0.11500
C532        C  0.79299930  0.65655251  0.89010999     0.23800
C533        C  0.81309853  0.68682895  0.89127468    -0.12100
C534        C  0.79718035  0.71915331  0.89466794     0.05200
C535        C  0.80915530  0.62327446  0.88309292     0.27600
C536        C  0.82307857  0.60140195  0.90123853    -0.12800
C537        C  0.83893191  0.57020836  0.89448806     0.05700
C538        C  0.84159764  0.56095126  0.86946345    -0.08800
C539        C  0.82712864  0.58267330  0.85131910     0.06600
C540        C  0.81075714  0.61369621  0.85815730    -0.13100
Br541      Br  0.86248980  0.68383959  0.88743288    -0.05200
Br542      Br  0.69259733  0.69144538  0.90551866     0.00400
Br543      Br  0.85578907  0.53955241  0.91983472     0.00900
Br544      Br  0.79077345  0.64354579  0.83344819    -0.03500
Br545      Br  0.82505651  0.76045886  0.89193919     0.01000
Br546      Br  0.73031473  0.61620115  0.89396584    -0.02800
Br547      Br  0.82058323  0.61449882  0.93535478    -0.03700
Br548      Br  0.83130374  0.57107275  0.81712409     0.00300
C549        C  0.91682650  0.69472090  0.59828539     0.01700
C550        C  0.93171553  0.70462218  0.57578845     0.04500
C551        C  0.96510680  0.71945625  0.57527883    -0.11500
C552        C  0.98384711  0.72482163  0.59728138     0.23800
C553        C  0.96920972  0.71429261  0.61972855    -0.12100
C554        C  0.93585711  0.69950999  0.62023323     0.05200
C555        C  0.01812627  0.74297394  0.59701279     0.27600
C556        C  0.04895774  0.72434404  0.59342231    -0.12800
C557        C  0.08123530  0.74150808  0.59391616     0.05700
C558        C  0.08307561  0.77757419  0.59813919    -0.08800
C559        C  0.05212937  0.79615046  0.60167691     0.06600
C560        C  0.01989559  0.77899980  0.60090335    -0.13100
Br561      Br  0.99492622  0.72042474  0.64986446    -0.05200
Br562      Br  0.90550044  0.69974341  0.54582268     0.00400
Br563      Br  0.12309137  0.71497966  0.59050826     0.00900
Br564      Br  0.97782679  0.80479244  0.60527413    -0.03500
Br565      Br  0.91605239  0.68584348  0.65112889     0.01000
Br566      Br  0.98514691  0.73309313  0.54447947    -0.02800
Br567      Br  0.04683219  0.67502670  0.58844774    -0.03700
Br568      Br  0.05374668  0.84536788  0.60719930     0.00300
C569        C  0.87326076  0.45280084  0.76356873     0.01700
C570        C  0.89525778  0.44029383  0.74472093     0.04500
C571        C  0.89132306  0.45196953  0.72026807    -0.11500
C572        C  0.86530086  0.47575921  0.71415371     0.23800
C573        C  0.84122487  0.48552996  0.73204461    -0.12100
C574        C  0.84506889  0.47438489  0.75659822     0.05200
C575        C  0.86589505  0.49468185  0.69026907     0.27600
C576        C  0.88388276  0.52629546  0.68896294    -0.12800
C577        C  0.87838748  0.54875041  0.66899241     0.05700
C578        C  0.85476088  0.53995081  0.65020288    -0.08800
C579        C  0.83927382  0.50692610  0.65033798     0.06600
C580        C  0.84513678  0.48412697  0.67024472    -0.13100
Br581      Br  0.80392685  0.51625764  0.72287562    -0.05200
Br582      Br  0.93108225  0.40697250  0.75159512     0.00400
Br583      Br  0.90006107  0.59362889  0.66878889     0.00900
Br584      Br  0.82285424  0.43961423  0.67111221    -0.03500
Br585      Br  0.81250634  0.49180223  0.78024661     0.01000
Br586      Br  0.92235257  0.43665026  0.69497676    -0.02800
Br587      Br  0.91340938  0.54035767  0.71587767    -0.03700
Br588      Br  0.80694192  0.49476421  0.62471852     0.00300
C589        C  0.77424239  0.71025437  0.68920384     0.01700
C590        C  0.74587450  0.69712664  0.70264415     0.04500
C591        C  0.73528773  0.71378303  0.72405985    -0.11500
C592        C  0.75100429  0.74490678  0.73114569     0.23800
C593        C  0.77775437  0.75931802  0.71714444    -0.12100
C594        C  0.78988310  0.74173782  0.69637853     0.05200
C595        C  0.74003425  0.76154622  0.75400459     0.27600
C596        C  0.71175337  0.78441449  0.75386437    -0.12800
C597        C  0.70031433  0.79874217  0.77601656     0.05700
C598        C  0.71698371  0.78974729  0.79809619    -0.08800
C599        C  0.74503883  0.76663427  0.79822579     0.06600
C600        C  0.75663940  0.75257999  0.77614648    -0.13100
Br601      Br  0.79787498  0.80292426  0.72680860    -0.05200
Br602      Br  0.71896929  0.65804642  0.69116786     0.00400
Br603      Br  0.66214943  0.83062758  0.77630315     0.00900
Br604      Br  0.79514535  0.72090450  0.77613656    -0.03500
Br605      Br  0.82860715  0.76049880  0.67864593     0.01000
Br606      Br  0.69957041  0.69368524  0.74417594    -0.02800
Br607      Br  0.68885435  0.79577274  0.72335045    -0.03700
Br608      Br  0.76798941  0.75468179  0.82869638     0.00300
C609        C  0.52356592  0.49638314  0.66483578     0.01700
C610        C  0.54607379  0.48584867  0.64609857     0.04500
C611        C  0.57829307  0.50193656  0.64342720    -0.11500
C612        C  0.58810615  0.52887700  0.65936948     0.23800
C613        C  0.56634072  0.53838021  0.67886800    -0.12100
C614        C  0.53397544  0.52214425  0.68155518     0.05200
C615        C  0.61986488  0.54884871  0.65391786     0.27600
C616        C  0.65225747  0.53665457  0.66182440    -0.12800
C617        C  0.68271529  0.55243002  0.65332079     0.05700
C618        C  0.68085371  0.58143936  0.63736699    -0.08800
C619        C  0.64802869  0.59451325  0.63044384     0.06600
C620        C  0.61777892  0.57794934  0.63844932    -0.13100
Br621      Br  0.58023063  0.57474626  0.70097371    -0.05200
Br622      Br  0.53124545  0.45180015  0.62240059     0.00400
Br623      Br  0.72659451  0.53233376  0.66256648     0.00900
Br624      Br  0.57308610  0.59469688  0.62792165    -0.03500
Br625      Br  0.50330712  0.53572177  0.70747784     0.01000
Br626      Br  0.60808793  0.48880123  0.61677214    -0.02800
Br627      Br  0.65449449  0.49780661  0.68406800    -0.03700
Br628      Br  0.64364746  0.63608248  0.61092986     0.00300
C629        C  0.69738655  0.59613271  0.40371571     0.01700
C630        C  0.69183502  0.62352493  0.42023011     0.04500
C631        C  0.71223581  0.62648661  0.44167415    -0.11500
C632        C  0.73863988  0.60228152  0.44655820     0.23800
C633        C  0.74650465  0.57709113  0.42881177    -0.12100
C634        C  0.72586254  0.57400041  0.40748088     0.05200
C635        C  0.75496996  0.60098803  0.47144642     0.27600
C636        C  0.78329398  0.62237475  0.47738980    -0.12800
C637        C  0.79516380  0.62472704  0.50191978     0.05700
C638        C  0.77890480  0.60546604  0.52056981    -0.08800
C639        C  0.75214634  0.58227958  0.51425158     0.06600
C640        C  0.74015515  0.58011345  0.48982979    -0.13100
Br641      Br  0.78363088  0.54500981  0.43485993    -0.05200
Br642      Br  0.65364617  0.65451423  0.41486126     0.00400
Br643      Br  0.83160699  0.65656784  0.51028475     0.00900
Br644      Br  0.70198705  0.54996084  0.48176970    -0.03500
Br645      Br  0.73432822  0.53733589  0.38437803     0.01000
Br646      Br  0.70181829  0.66157103  0.46562893    -0.02800
Br647      Br  0.80442944  0.64972676  0.45201912    -0.03700
Br648      Br  0.73113717  0.55420765  0.53939628     0.00300
C649        C  0.62779418  0.54161368  0.27077200     0.01700
C650        C  0.60547236  0.55464385  0.25240281     0.04500
C651        C  0.60953540  0.54454474  0.22768966    -0.11500
C652        C  0.63529676  0.52047998  0.22129714     0.23800
C653        C  0.65892201  0.50912684  0.23948043    -0.12100
C654        C  0.65528659  0.51987664  0.26407224     0.05200
C655        C  0.63537296  0.50416777  0.19636727     0.27600
C656        C  0.61179009  0.47744532  0.19090059    -0.12800
C657        C  0.61461626  0.45861253  0.16887559     0.05700
C658        C  0.64246987  0.46465347  0.15271280    -0.08800
C659        C  0.66321026  0.49448951  0.15669785     0.06600
C660        C  0.65971700  0.51392050  0.17855410    -0.13100
Br661      Br  0.69490217  0.47692940  0.23102505    -0.05200
Br662      Br  0.56778646  0.58438246  0.26150154     0.00400
Br663      Br  0.57951910  0.42485582  0.16079439     0.00900
Br664      Br  0.68936104  0.55306369  0.18485790    -0.03500
Br665      Br  0.68671779  0.50327768  0.28903789     0.01000
Br666      Br  0.57872926  0.56215261  0.20269350    -0.02800
Br667      Br  0.57694184  0.46493197  0.21447050    -0.03700
Br668      Br  0.69690013  0.50907036  0.13294433     0.00300
C669        C  0.81209227  0.42396919  0.12123485     0.01700
C670        C  0.81423056  0.44872541  0.14018131     0.04500
C671        C  0.84648738  0.46250430  0.14708827    -0.11500
C672        C  0.87658800  0.45162001  0.13506705     0.23800
C673        C  0.87449060  0.42692205  0.11614580    -0.12100
C674        C  0.84233690  0.41297709  0.10932749     0.05200
C675        C  0.91022932  0.46781526  0.14104453     0.27600
C676        C  0.92125853  0.49636414  0.12716106    -0.12800
C677        C  0.95428383  0.51020925  0.13106881     0.05700
C678        C  0.97601975  0.49644548  0.14949817    -0.08800
C679        C  0.96493802  0.46803050  0.16358230     0.06600
C680        C  0.93199432  0.45365383  0.15933249    -0.13100
Br681      Br  0.91582354  0.41232212  0.09956896    -0.05200
Br682      Br  0.77341998  0.46213965  0.15780241     0.00400
Br683      Br  0.97131650  0.54517239  0.10900575     0.00900
Br684      Br  0.91713347  0.41373816  0.17767354    -0.03500
Br685      Br  0.83974300  0.37895080  0.08347821     0.01000
Br686      Br  0.84978299  0.49598232  0.17321172    -0.02800
Br687      Br  0.89162087  0.51529275  0.10184733    -0.03700
Br688      Br  0.99542035  0.44820559  0.18792815     0.00300
C689        C  0.80162208  0.40709992  0.90347283     0.01700
C690        C  0.77809901  0.43413313  0.90879762     0.04500
C691        C  0.75767930  0.43264157  0.93018874    -0.11500
C692        C  0.76011678  0.40410317  0.94622009     0.23800
C693        C  0.78129494  0.37596492  0.93988176    -0.12100
C694        C  0.80172870  0.37730325  0.91859925     0.05200
C695        C  0.74273469  0.40442602  0.97065466     0.27600
C696        C  0.76059013  0.41729046  0.99134305    -0.12800
C697        C  0.74681826  0.41321664  0.01506273     0.05700
C698        C  0.71453264  0.39666753  0.01837493    -0.08800
C699        C  0.69581045  0.38552132  0.99742068     0.06600
C700        C  0.70989519  0.38938898  0.97369523    -0.13100
Br701      Br  0.78375219  0.33627023  0.96133107    -0.05200
Br702      Br  0.77530874  0.47475408  0.88820692     0.00400
Br703      Br  0.77435914  0.42742343  0.04300916     0.00900
Br704      Br  0.68481883  0.37332796  0.94521314    -0.03500
Br705      Br  0.83016310  0.33806490  0.91037051     0.01000
Br706      Br  0.72784883  0.47066815  0.93854657    -0.02800
Br707      Br  0.80491125  0.43926953  0.98714387    -0.03700
Br708      Br  0.65071927  0.36514391  0.00108336     0.00300
C709        C  0.63565889  0.42482422  0.37485953     0.01700
C710        C  0.61570501  0.40097176  0.38822161     0.04500
C711        C  0.62943886  0.36847732  0.39439989    -0.11500
C712        C  0.66338146  0.36010686  0.38762988     0.23800
C713        C  0.68352599  0.38418709  0.37456584    -0.12100
C714        C  0.66970784  0.41663487  0.36831400     0.05200
C715        C  0.67781834  0.32574645  0.39373549     0.27600
C716        C  0.69813118  0.32119495  0.41508565    -0.12800
C717        C  0.71558960  0.28977656  0.41903617     0.05700
C718        C  0.71192569  0.26276968  0.40199706    -0.08800
C719        C  0.68901216  0.26625081  0.38188393     0.06600
C720        C  0.67255516  0.29798940  0.37747015    -0.13100
Br721      Br  0.73008116  0.37268420  0.36537390    -0.05200
Br722      Br  0.57018308  0.41355575  0.39909980     0.00400
Br723      Br  0.74457428  0.28342341  0.44757137     0.00900
Br724      Br  0.64464900  0.30432579  0.34829062    -0.03500
Br725      Br  0.69766678  0.45041570  0.35160730     0.01000
Br726      Br  0.60205406  0.33545449  0.41231029    -0.02800
Br727      Br  0.70285689  0.35842735  0.43833386    -0.03700
Br728      Br  0.68215415  0.22834637  0.35925125     0.00300
C729        C  0.77589059  0.22958268  0.30332877     0.01700
C730        C  0.78197137  0.21506691  0.27997381     0.04500
C731        C  0.77097276  0.23252588  0.25868670    -0.11500
C732        C  0.75293128  0.26390597  0.26071242     0.23800
C733        C  0.74756864  0.27892479  0.28383908    -0.12100
C734        C  0.75972781  0.26224072  0.30510946     0.05200
C735        C  0.74003964  0.28154253  0.23845313     0.27600
C736        C  0.75960786  0.30831364  0.22805707    -0.12800
C737        C  0.74747753  0.32535860  0.20700648     0.05700
C738        C  0.71662569  0.31423829  0.19538758    -0.08800
C739        C  0.69648886  0.28796489  0.20625558     0.06600
C740        C  0.70817795  0.27182706  0.22791610    -0.13100
Br741      Br  0.72237567  0.32187197  0.28623106    -0.05200
Br742      Br  0.80597070  0.17159857  0.27692452     0.00400
Br743      Br  0.77295345  0.36473417  0.19468195     0.00900
Br744      Br  0.68133485  0.23545678  0.24280424    -0.03500
Br745      Br  0.75250286  0.28389510  0.33650349     0.01000
Br746      Br  0.78030910  0.21355838  0.22664612    -0.02800
Br747      Br  0.80385166  0.32052355  0.24214215    -0.03700
Br748      Br  0.65404781  0.27235908  0.19106086     0.00300
C749        C  0.95964896  0.32175406  0.84342493     0.01700
C750        C  0.96579389  0.30008575  0.86418679     0.04500
C751        C  0.98091069  0.26715825  0.86131380    -0.11500
C752        C  0.99243050  0.25612691  0.83819021     0.23800
C753        C  0.98655383  0.27721885  0.81751921    -0.12100
C754        C  0.96929444  0.30922595  0.81991303     0.05200
C755        C  0.01171188  0.22276469  0.83609241     0.27600
C756        C  0.04659497  0.22101565  0.84354811    -0.12800
C757        C  0.06359022  0.18881959  0.84531595     0.05700
C758        C  0.04626525  0.15800431  0.83844977    -0.08800
C759        C  0.01206113  0.16031647  0.82908174     0.06600
C760        C  0.99470510  0.19238581  0.82844592    -0.13100
Br761      Br  0.00292651  0.26223939  0.78589297    -0.05200
Br762      Br  0.95643159  0.31526947  0.89729955     0.00400
Br763      Br  0.10942872  0.18732592  0.85943463     0.00900
Br764      Br  0.94705325  0.19463270  0.81796358    -0.03500
Br765      Br  0.95771081  0.33431111  0.79037416     0.01000
Br766      Br  0.98626400  0.23668384  0.88925227    -0.02800
Br767      Br  0.07069738  0.26306903  0.85205434    -0.03700
Br768      Br  0.98871683  0.11978482  0.81651187     0.00300
C769        C  0.83210286  0.88412062  0.87039165     0.01700
C770        C  0.84968325  0.90579551  0.88712296     0.04500
C771        C  0.88214264  0.91965129  0.88094478    -0.11500
C772        C  0.89694842  0.91207320  0.85800677     0.23800
C773        C  0.88014241  0.88922262  0.84179415    -0.12100
C774        C  0.84795747  0.87503763  0.84803337     0.05200
C775        C  0.92964833  0.92903886  0.85060132     0.27600
C776        C  0.92866850  0.96091693  0.83811896    -0.12800
C777        C  0.95952802  0.97837298  0.83263199     0.05700
C778        C  0.99163226  0.96432050  0.83997159    -0.08800
C779        C  0.99259343  0.93092712  0.85076341     0.06600
C780        C  0.96159123  0.91354213  0.85618275    -0.13100
Br781      Br  0.90116673  0.87794187  0.81083445    -0.05200
Br782      Br  0.82858814  0.91809336  0.91784593     0.00400
Br783      Br  0.95773236  0.02145089  0.81472627     0.00900
Br784      Br  0.96252099  0.86910765  0.87237329    -0.03500
Br785      Br  0.82615081  0.84219270  0.82616880     0.01000
Br786      Br  0.90619836  0.94967067  0.90358349    -0.02800
Br787      Br  0.88479028  0.98123949  0.82941474    -0.03700
Br788      Br  0.03581163  0.90930409  0.85981424     0.00300
C789        C  0.16696448  0.92477601  0.87914629     0.01700
C790        C  0.16562212  0.91070087  0.90319932     0.04500
C791        C  0.18305241  0.87978546  0.90872437    -0.11500
C792        C  0.20214262  0.86300405  0.89050281     0.23800
C793        C  0.20468986  0.87745194  0.86688706    -0.12100
C794        C  0.18692719  0.90806196  0.86108933     0.05200
C795        C  0.21697324  0.82852085  0.89539020     0.27600
C796        C  0.24970745  0.82520700  0.90651324    -0.12800
C797        C  0.26457006  0.79230813  0.90934268     0.05700
C798        C  0.24697085  0.76283337  0.90053151    -0.08800
C799        C  0.21361013  0.76619831  0.89009675     0.06600
C800        C  0.19853145  0.79899379  0.88786212    -0.13100
Br801      Br  0.23216051  0.85461462  0.84237901    -0.05200
Br802      Br  0.13818276  0.93175515  0.92857059     0.00400
Br803      Br  0.30894581  0.78761936  0.92537018     0.00900
Br804      Br  0.15307588  0.80387827  0.87340918    -0.03500
Br805      Br  0.19084828  0.92688030  0.82841826     0.01000
Br806      Br  0.17983356  0.85933790  0.94100940    -0.02800
Br807      Br  0.27456881  0.86588262  0.91696082    -0.03700
Br808      Br  0.18960015  0.72673478  0.87637593     0.00300
C809        C  0.14458216  0.03069855  0.77008142     0.01700
C810        C  0.17331219  0.01066953  0.76335892     0.04500
C811        C  0.17578969  0.99729649  0.73935015    -0.11500
C812        C  0.14986241  0.00466512  0.72172012     0.23800
C813        C  0.12329620  0.02801796  0.72772630    -0.12100
C814        C  0.12036534  0.04053579  0.75193826     0.05200
C815        C  0.14866364  0.98510836  0.69803552     0.27600
C816        C  0.17126766  0.99329214  0.67875035    -0.12800
C817        C  0.17388910  0.97123245  0.65816526     0.05700
C818        C  0.15275994  0.94127775  0.65629173    -0.08800
C819        C  0.12701270  0.93593545  0.67423040     0.06600
C820        C  0.12584475  0.95691205  0.69534811    -0.13100
Br821      Br  0.08988086  0.04118231  0.70305160    -0.05200
Br822      Br  0.20838456  0.00041034  0.78752491     0.00400
Br823      Br  0.20853539  0.98146845  0.63391450     0.00900
Br824      Br  0.09432058  0.94555576  0.72145037    -0.03500
Br825      Br  0.08167918  0.06903533  0.76089419     0.01000
Br826      Br  0.21341386  0.96687541  0.73116271    -0.02800
Br827      Br  0.19965553  0.03417285  0.68123980    -0.03700
Br828      Br  0.09262994  0.90017157  0.66986431     0.00300
C829        C  0.94640268  0.83490289  0.14289029     0.01700
C830        C  0.96227165  0.82140854  0.12161077     0.04500
C831        C  0.97918431  0.78916798  0.12230987    -0.11500
C832        C  0.97932741  0.76912289  0.14392684     0.23800
C833        C  0.96199024  0.78159452  0.16483657    -0.12100
C834        C  0.94597217  0.81452349  0.16445702     0.05200
C835        C  0.99692801  0.73458627  0.14412596     0.27600
C836        C  0.98052341  0.70574218  0.13336591    -0.12800
C837        C  0.99816172  0.67399266  0.13129735     0.05700
C838        C  0.03204080  0.67022049  0.14066822    -0.08800
C839        C  0.04812443  0.69877557  0.15209195     0.06600
C840        C  0.03083892  0.73094462  0.15351431    -0.13100
Br841      Br  0.96012953  0.75325544  0.19392566    -0.05200
Br842      Br  0.95930708  0.84607211  0.09075475     0.00400
Br843      Br  0.97562050  0.63556605  0.11557497     0.00900
Br844      Br  0.05382829  0.77039659  0.16775073    -0.03500
Br845      Br  0.92491468  0.83214932  0.19382427     0.01000
Br846      Br  0.00250191  0.77235393  0.09350321    -0.02800
Br847      Br  0.93368967  0.70992337  0.12137492    -0.03700
Br848      Br  0.09423887  0.69395908  0.16511254     0.00300
C849        C  0.71390564  0.88148432  0.97275076     0.01700
C850        C  0.70839599  0.85623345  0.99100072     0.04500
C851        C  0.72071901  0.86151779  0.01508285    -0.11500
C852        C  0.73945759  0.89168232  0.02087240     0.23800
C853        C  0.74344781  0.91775875  0.00293191    -0.12100
C854        C  0.73021233  0.91284434  0.97900336     0.05200
C855        C  0.75790079  0.89446609  0.04487357     0.27600
C856        C  0.74450211  0.91492436  0.06395539    -0.12800
C857        C  0.76435770  0.92092970  0.08534015     0.05700
C858        C  0.79733801  0.90603020  0.08788413    -0.08800
C859        C  0.80957767  0.88354863  0.06958869     0.06600
C860        C  0.79012012  0.87803073  0.04804171    -0.13100
Br861      Br  0.76961224  0.95889408  0.01057389    -0.05200
Br862      Br  0.68577181  0.81339859  0.98247162     0.00400
Br863      Br  0.74792010  0.95187930  0.11031152     0.00900
Br864      Br  0.80907225  0.85047721  0.02189129    -0.03500
Br865      Br  0.73671568  0.94782483  0.95420098     0.01000
Br866      Br  0.71404379  0.82651066  0.03983580    -0.02800
Br867      Br  0.70004933  0.93656893  0.05994237    -0.03700
Br868      Br  0.85495679  0.86336246  0.07301324     0.00300
C869        C  0.83976753  0.08224726  0.11728276     0.01700
C870        C  0.80936013  0.08191573  0.10238701     0.04500
C871        C  0.79290491  0.11305470  0.09578252    -0.11500
C872        C  0.80606857  0.14481905  0.10404454     0.23800
C873        C  0.83615879  0.14558050  0.11868075    -0.12100
C874        C  0.85295554  0.11456493  0.12534670     0.05200
C875        C  0.78621934  0.17710628  0.09953926     0.27600
C876        C  0.78997571  0.19605864  0.07753327    -0.12800
C877        C  0.77200087  0.22746579  0.07419630     0.05700
C878        C  0.75057631  0.23994445  0.09291815    -0.08800
C879        C  0.74587519  0.22028391  0.11446124     0.06600
C880        C  0.76350110  0.18892610  0.11771702    -0.13100
Br881      Br  0.85410937  0.18960600  0.12963795    -0.05200
Br882      Br  0.78810685  0.03916042  0.09166414     0.00400
Br883      Br  0.77777793  0.25429335  0.04468597     0.00900
Br884      Br  0.75749195  0.16259460  0.14753662    -0.03500
Br885      Br  0.89453425  0.11751853  0.14487735     0.01000
Br886      Br  0.75154393  0.11251730  0.07570946    -0.02800
Br887      Br  0.82071823  0.17962199  0.05251789    -0.03700
Br888      Br  0.71603887  0.23706568  0.14005508     0.00300
C889        C  0.84555961  0.06110894  0.33397408     0.01700
C890        C  0.83587697  0.02607589  0.33604640     0.04500
C891        C  0.83955606  0.00350569  0.31581834    -0.11500
C892        C  0.85319582  0.01584998  0.29351533     0.23800
C893        C  0.86562294  0.05007178  0.29220686    -0.12100
C894        C  0.86190287  0.07252158  0.31233379     0.05200
C895        C  0.85265476  0.99427220  0.27077018     0.27600
C896        C  0.88121005  0.97349752  0.26472049    -0.12800
C897        C  0.88394917  0.95936055  0.24095390     0.05700
C898        C  0.85888197  0.96696209  0.22286175    -0.08800
C899        C  0.82899555  0.98535390  0.22946623     0.06600
C900        C  0.82558200  0.99840120  0.25350545    -0.13100
Br901      Br  0.88563119  0.06687401  0.26208427    -0.05200
Br902      Br  0.81483245  0.00995088  0.36585263     0.00400
Br903      Br  0.92310357  0.93124818  0.23246322     0.00900
Br904      Br  0.78494189  0.02410873  0.26240437    -0.03500
Br905      Br  0.87747687  0.11982461  0.30981645     0.01000
Br906      Br  0.82376588  0.95639879  0.31796129    -0.02800
Br907      Br  0.91787413  0.96693881  0.28833945    -0.03700
Br908      Br  0.79417236  0.99508485  0.20494531     0.00300
C909        C  0.03160266  0.02044703  0.93707171     0.01700
C910        C  0.01581000  0.04640387  0.95117475     0.04500
C911        C  0.99655064  0.03712580  0.97186989    -0.11500
C912        C  0.99428745  0.00214542  0.97884143     0.23800
C913        C  0.00908928  0.97618312  0.96435612    -0.12100
C914        C  0.02708049  0.98526518  0.94315480     0.05200
C915        C  0.97910032  0.99267878  0.00251157     0.27600
C916        C  0.99956318  0.99495921  0.02389068    -0.12800
C917        C  0.98578504  0.98523408  0.04655215     0.05700
C918        C  0.95182809  0.97218078  0.04763965    -0.08800
C919        C  0.93163304  0.96915506  0.02607021     0.06600
C920        C  0.94515183  0.97993766  0.00352993    -0.13100
Br921      Br  0.00553185  0.92824952  0.97407434    -0.05200
Br922      Br  0.02229943  0.09458728  0.94316436     0.00400
Br923      Br  0.01268892  0.99256552  0.07612928     0.00900
Br924      Br  0.91724660  0.97776190  0.97406986    -0.03500
Br925      Br  0.04402635  0.94921819  0.92198487     0.01000
Br926      Br  0.97385270  0.07211777  0.99106075    -0.02800
Br927      Br  0.04643728  0.01181922  0.02202455    -0.03700
Br928      Br  0.88576202  0.94953262  0.02722795     0.00300
C929        C  0.46058574  0.32532339  0.64721480     0.01700
C930        C  0.49618859  0.32332158  0.65279813     0.04500
C931        C  0.51276074  0.29099311  0.65412926    -0.11500
C932        C  0.49390992  0.26037840  0.65000825     0.23800
C933        C  0.45814346  0.26222971  0.64508732    -0.12100
C934        C  0.44153212  0.29464781  0.64359361     0.05200
C935        C  0.51235893  0.22662509  0.64908284     0.27600
C936        C  0.52527740  0.21470631  0.62654236    -0.12800
C937        C  0.54372719  0.18343189  0.62548259     0.05700
C938        C  0.54927355  0.16361147  0.64691623    -0.08800
C939        C  0.53598937  0.17532135  0.66943928     0.06600
C940        C  0.51781070  0.20690422  0.67056478    -0.13100
Br941      Br  0.43216781  0.22023734  0.64016598    -0.05200
Br942      Br  0.52286482  0.36502896  0.65736780     0.00400
Br943      Br  0.56100252  0.16738867  0.59443124     0.00900
Br944      Br  0.49943879  0.22284359  0.70130929    -0.03500
Br945      Br  0.39259309  0.29708869  0.63718793     0.01000
Br946      Br  0.56164621  0.28848894  0.66094462    -0.02800
Br947      Br  0.51685727  0.24101089  0.59696504    -0.03700
Br948      Br  0.54066535  0.14698996  0.69833440     0.00300
C949        C  0.31317573  0.91390160  0.62079264     0.01700
C950        C  0.33855428  0.92244868  0.60347382     0.04500
C951        C  0.36967152  0.93819132  0.61116246    -0.11500
C952        C  0.37601244  0.94451607  0.63633850     0.23800
C953        C  0.35031820  0.93650031  0.65361541    -0.12100
C954        C  0.31883322  0.92172708  0.64581023     0.05200
C955        C  0.41025076  0.95821637  0.64452183     0.27600
C956        C  0.43907654  0.93603273  0.64567740    -0.12800
C957        C  0.47243966  0.94959936  0.64981829     0.05700
C958        C  0.47705563  0.98555166  0.65345186    -0.08800
C959        C  0.44757083  0.00691177  0.65526993     0.06600
C960        C  0.41443943  0.99350826  0.65017483    -0.13100
Br961      Br  0.35892032  0.94431368  0.68809132    -0.05200
Br962      Br  0.33132185  0.91115567  0.56944426     0.00400
Br963      Br  0.51152116  0.91877419  0.64865703     0.00900
Br964      Br  0.37495867  0.02384407  0.64973808    -0.03500
Br965      Br  0.28349963  0.91136520  0.66952620     0.01000
Br966      Br  0.40415647  0.95033844  0.58728374    -0.02800
Br967      Br  0.43273375  0.88704654  0.64057054    -0.03700
Br968      Br  0.45244331  0.05450638  0.66540765     0.00300
C969        C  0.70162663  0.09236779  0.58893096     0.01700
C970        C  0.69085596  0.11525226  0.57018243     0.04500
C971        C  0.71102496  0.12006347  0.54895104    -0.11500
C972        C  0.74256549  0.10228499  0.54621106     0.23800
C973        C  0.75475850  0.08153789  0.56580579    -0.12100
C974        C  0.73421296  0.07633434  0.58692349     0.05200
C975        C  0.76076705  0.10339442  0.52190247     0.27600
C976        C  0.75417268  0.07753039  0.50415380    -0.12800
C977        C  0.76500165  0.08202035  0.47960888     0.05700
C978        C  0.78295957  0.11213450  0.47258273    -0.08800
C979        C  0.79221368  0.13647490  0.49076131     0.06600
C980        C  0.78115360  0.13217771  0.51528145    -0.13100
Br981      Br  0.79873412  0.05877765  0.56301471    -0.05200
Br982      Br  0.64661285  0.13756105  0.57259802     0.00400
Br983      Br  0.75356248  0.04788030  0.45512454     0.00900
Br984      Br  0.79212395  0.16670627  0.53957065    -0.03500
Br985      Br  0.74934822  0.04520535  0.61244914     0.01000
Br986      Br  0.69404745  0.14896388  0.52258885    -0.02800
Br987      Br  0.72836413  0.03685067  0.51317048    -0.03700
Br988      Br  0.81824019  0.17690232  0.48152882     0.00300
C989        C  0.64722694  0.91573381  0.62261377     0.01700
C990        C  0.68178790  0.90779259  0.62842275     0.04500
C991        C  0.69575971  0.87567120  0.62154524    -0.11500
C992        C  0.67535538  0.85161465  0.60846081     0.23800
C993        C  0.64106344  0.85997266  0.60207176    -0.12100
C994        C  0.62705476  0.89199311  0.60910382     0.05200
C995        C  0.68957966  0.81697645  0.60250175     0.27600
C996        C  0.70984463  0.81206746  0.58140956    -0.12800
C997        C  0.72621547  0.78005425  0.57735709     0.05700
C998        C  0.72184345  0.75265683  0.59414254    -0.08800
C999        C  0.69986506  0.75709032  0.61451227     0.06600
C1000       C  0.68403137  0.78922413  0.61873161    -0.13100
Br1001     Br  0.61365215  0.82773294  0.58325689    -0.05200
Br1002     Br  0.71016468  0.94138664  0.64516861     0.00400
Br1003     Br  0.75447796  0.77352783  0.54878401     0.00900
Br1004     Br  0.65596166  0.79597703  0.64747675    -0.03500
Br1005     Br  0.58075121  0.90423501  0.59913769     0.01000
Br1006     Br  0.74298169  0.86461197  0.62980062    -0.02800
Br1007     Br  0.71565149  0.84953768  0.55844518    -0.03700
Br1008     Br  0.69339748  0.72021340  0.63798448     0.00300
C1009       C  0.64053553  0.03271426  0.72548710     0.01700
C1010       C  0.66100091  0.00386100  0.73178876     0.04500
C1011       C  0.66451243  0.99332829  0.75644779    -0.11500
C1012       C  0.64791607  0.01178916  0.77529216     0.23800
C1013       C  0.62963496  0.04224830  0.76930643    -0.12100
C1014       C  0.62580416  0.05258101  0.74445578     0.05200
C1015       C  0.64870456  0.99747562  0.80087939     0.27600
C1016       C  0.62252269  0.97457636  0.80861263    -0.12800
C1017       C  0.62803479  0.95268006  0.82908808     0.05700
C1018       C  0.65969070  0.95371738  0.84204147    -0.08800
C1019       C  0.68394885  0.97969160  0.83609262     0.06600
C1020       C  0.67840625  0.00156677  0.81567931    -0.13100
Br1021     Br  0.60891071  0.06889946  0.79514280    -0.05200
Br1022     Br  0.68363720  0.97810063  0.70630569     0.00400
Br1023     Br  0.59399391  0.91844860  0.83744324     0.00900
Br1024     Br  0.71274925  0.03523312  0.80662337    -0.03500
Br1025     Br  0.59861312  0.09260840  0.73631408     0.01000
Br1026     Br  0.69071481  0.95227711  0.76431665    -0.02800
Br1027     Br  0.58031022  0.97120598  0.78978803    -0.03700
Br1028     Br  0.72625932  0.98329306  0.85484691     0.00300
C1029       C  0.54261574  0.67238334  0.34399601     0.01700
C1030       C  0.55992947  0.70264288  0.35180672     0.04500
C1031       C  0.54296828  0.73489221  0.35078081    -0.11500
C1032       C  0.50878283  0.73708587  0.34185388     0.23800
C1033       C  0.49233672  0.70734491  0.33262179    -0.12100
C1034       C  0.50941237  0.67527948  0.33328683     0.05200
C1035       C  0.48974446  0.77042513  0.34277475     0.27600
C1036       C  0.47250405  0.78005443  0.36438941    -0.12800
C1037       C  0.45530794  0.81203410  0.36561131     0.05700
C1038       C  0.45410242  0.83397937  0.34495499    -0.08800
C1039       C  0.47101805  0.82418344  0.32325901     0.06600
C1040       C  0.48892136  0.79252872  0.32218907    -0.13100
Br1041     Br  0.44585811  0.71048387  0.31982314    -0.05200
Br1042     Br  0.60623761  0.70012494  0.36480109     0.00400
Br1043     Br  0.43494776  0.82666564  0.39600975     0.00900
Br1044     Br  0.51301694  0.77960150  0.29277759    -0.03500
Br1045     Br  0.48791772  0.63559409  0.31826850     0.01000
Br1046     Br  0.56594323  0.77609769  0.36237284    -0.02800
Br1047     Br  0.47276965  0.74942941  0.39238408    -0.03700
Br1048     Br  0.47086798  0.85486051  0.29540468     0.00300
C1049       C  0.29968951  0.89625187  0.40244219     0.01700
C1050       C  0.30634401  0.86752034  0.41766972     0.04500
C1051       C  0.28614993  0.86154134  0.43871329    -0.11500
C1052       C  0.25830602  0.88364888  0.44421640     0.23800
C1053       C  0.24928949  0.91003595  0.42744774    -0.12100
C1054       C  0.27028362  0.91670498  0.40690575     0.05200
C1055       C  0.24126310  0.88154596  0.46876982     0.27600
C1056       C  0.21558944  0.85670435  0.47348446    -0.12800
C1057       C  0.20228075  0.85259877  0.49742896     0.05700
C1058       C  0.21417603  0.87384127  0.51704242    -0.08800
C1059       C  0.23787903  0.90082381  0.51153941     0.06600
C1060       C  0.25184301  0.90396652  0.48775772    -0.13100
Br1061     Br  0.20954320  0.93851218  0.43366057    -0.05200
Br1062     Br  0.34488383  0.83799535  0.41061852     0.00400
Br1063     Br  0.16676191  0.81835995  0.50267470     0.00900
Br1064     Br  0.28711520  0.93813347  0.48129945    -0.03500
Br1065     Br  0.26082631  0.95594059  0.38603181     0.01000
Br1066     Br  0.29854517  0.82497763  0.46121490    -0.02800
Br1067     Br  0.19914260  0.82802122  0.44690541    -0.03700
Br1068     Br  0.25292092  0.93346448  0.53620950     0.00300
C1069       C  0.50905144  0.02420033  0.33206846     0.01700
C1070       C  0.51097390  0.05748652  0.34280898     0.04500
C1071       C  0.54323073  0.07342978  0.34622902    -0.11500
C1072       C  0.57341364  0.05657844  0.33861254     0.23800
C1073       C  0.57129644  0.02518341  0.32571020    -0.12100
C1074       C  0.53912369  0.00899854  0.32237716     0.05200
C1075       C  0.60743140  0.07091343  0.34556794     0.27600
C1076       C  0.62460937  0.09348609  0.32957651    -0.12800
C1077       C  0.65627573  0.10822748  0.33667467     0.05700
C1078       C  0.67138600  0.09953243  0.35966828    -0.08800
C1079       C  0.65406712  0.07658801  0.37558340     0.06600
C1080       C  0.62194880  0.06267195  0.36862004    -0.13100
Br1081     Br  0.61281778  0.00366994  0.31381322    -0.05200
Br1082     Br  0.47035772  0.08047338  0.35508070     0.00400
Br1083     Br  0.67706670  0.14229497  0.31532837     0.00900
Br1084     Br  0.59730345  0.03267309  0.39080772    -0.03500
Br1085     Br  0.53636995  0.96580379  0.30476642     0.01000
Br1086     Br  0.54661847  0.11734268  0.36294408    -0.02800
Br1087     Br  0.60405611  0.10466715  0.29814505    -0.03700
Br1088     Br  0.67447670  0.06302404  0.40659650     0.00300
C1089       C  0.54649513  0.02772756  0.54872587     0.01700
C1090       C  0.51070500  0.02120051  0.54642673     0.04500
C1091       C  0.49667483  0.01231701  0.52349092    -0.11500
C1092       C  0.51836368  0.00904633  0.50306132     0.23800
C1093       C  0.55385310  0.01602529  0.50514018    -0.12100
C1094       C  0.56791704  0.02584631  0.52788724     0.05200
C1095       C  0.50352138  0.99815520  0.47938203     0.27600
C1096       C  0.50153832  0.96275259  0.47353585    -0.12800
C1097       C  0.48443117  0.95222041  0.45199825     0.05700
C1098       C  0.46896282  0.97715494  0.43665032    -0.08800
C1099       C  0.47256424  0.01266329  0.44191375     0.06600
C1100       C  0.48981354  0.02315797  0.46332909    -0.13100
Br1101     Br  0.58307987  0.01151499  0.47680333    -0.05200
Br1102     Br  0.48087146  0.02159751  0.57472884     0.00400
Br1103     Br  0.48117435  0.90377763  0.44395941     0.00900
Br1104     Br  0.49431215  0.07167844  0.47102031    -0.03500
Br1105     Br  0.61636150  0.03762753  0.53009999     0.01000
Br1106     Br  0.44773568  0.00378525  0.51998200    -0.02800
Br1107     Br  0.52151638  0.92888097  0.49542953    -0.03700
Br1108     Br  0.45507916  0.04703597  0.41933306     0.00300
C1109       C  0.57985451  0.29436808  0.09838995     0.01700
C1110       C  0.58159401  0.25825576  0.09456546     0.04500
C1111       C  0.55129085  0.23804290  0.09483796    -0.11500
C1112       C  0.51898890  0.25378546  0.09851882     0.23800
C1113       C  0.51713501  0.28988191  0.10191176    -0.12100
C1114       C  0.54749100  0.31003202  0.10227085     0.05200
C1115       C  0.48699742  0.23242661  0.09979949     0.27600
C1116       C  0.46874366  0.22355867  0.07820887    -0.12800
C1117       C  0.43690252  0.20595146  0.07966410     0.05700
C1118       C  0.42288749  0.19769119  0.10276919    -0.08800
C1119       C  0.44193998  0.20526054  0.12430731     0.06600
C1120       C  0.47400879  0.22227491  0.12280131    -0.13100
Br1121     Br  0.47277503  0.31155678  0.10622717    -0.05200
Br1122     Br  0.62578273  0.23588671  0.09080157     0.00400
Br1123     Br  0.41150202  0.19516399  0.05006289     0.00900
Br1124     Br  0.50002800  0.23236104  0.15228705    -0.03500
Br1125     Br  0.54465075  0.35911248  0.10805861     0.01000
Br1126     Br  0.55396208  0.18853665  0.09106141    -0.02800
Br1127     Br  0.48685535  0.23689009  0.04672569    -0.03700
Br1128     Br  0.42412730  0.19216626  0.15599150     0.00300
C1129       C  0.24243660  0.27439429  0.09454437     0.01700
C1130       C  0.26131304  0.30411445  0.08763053     0.04500
C1131       C  0.24682985  0.33730614  0.09043294    -0.11500
C1132       C  0.21425104  0.34111874  0.10142549     0.23800
C1133       C  0.19491454  0.31148541  0.10753016    -0.12100
C1134       C  0.20824651  0.27829642  0.10306138     0.05200
C1135       C  0.19976457  0.37605494  0.10639291     0.27600
C1136       C  0.21200036  0.39587234  0.12637884    -0.12800
C1137       C  0.19607281  0.42755923  0.13229369     0.05700
C1138       C  0.16617796  0.43833690  0.11935132    -0.08800
C1139       C  0.15464465  0.41875515  0.09887071     0.06600
C1140       C  0.17206036  0.38841880  0.09204444    -0.13100
Br1141     Br  0.15067034  0.31637533  0.12330302    -0.05200
Br1142     Br  0.30665754  0.29942134  0.07363144     0.00400
Br1143     Br  0.21496072  0.45519028  0.15858649     0.00900
Br1144     Br  0.15782203  0.36330232  0.06303742    -0.03500
Br1145     Br  0.17933538  0.23862736  0.10943748     0.01000
Br1146     Br  0.27150942  0.37767455  0.07932886    -0.02800
Br1147     Br  0.24959845  0.37868001  0.14639021    -0.03700
Br1148     Br  0.11530414  0.43338449  0.07940845     0.00300
C1149       C  0.35845276  0.96117136  0.26820355     0.01700
C1150       C  0.33112253  0.98289519  0.26083956     0.04500
C1151       C  0.32929822  0.99547195  0.23655918    -0.11500
C1152       C  0.35440791  0.98566455  0.21925399     0.23800
C1153       C  0.37993423  0.96146062  0.22605334    -0.12100
C1154       C  0.38229152  0.94969526  0.25055179     0.05200
C1155       C  0.35588474  0.00360732  0.19496669     0.27600
C1156       C  0.33278598  0.99469028  0.17586182    -0.12800
C1157       C  0.32974681  0.01609820  0.15494731     0.05700
C1158       C  0.35008563  0.04620280  0.15286025    -0.08800
C1159       C  0.37581373  0.05283742  0.17063552     0.06600
C1160       C  0.37844008  0.03194845  0.19179568    -0.13100
Br1161     Br  0.41295104  0.94633504  0.20206504    -0.05200
Br1162     Br  0.29734782  0.99688971  0.28465074     0.00400
Br1163     Br  0.29525422  0.00639840  0.13020645     0.00900
Br1164     Br  0.41056713  0.04429765  0.21758289    -0.03500
Br1165     Br  0.42026655  0.92069957  0.26050983     0.01000
Br1166     Br  0.29399775  0.02838914  0.22758299    -0.02800
Br1167     Br  0.30340916  0.95478066  0.17937418    -0.03700
Br1168     Br  0.40515706  0.09274982  0.16692226     0.00300
C1169       C  0.17857642  0.09629392  0.12525851     0.01700
C1170       C  0.15917288  0.08042444  0.10635767     0.04500
C1171       C  0.12773167  0.06397579  0.11187974    -0.11500
C1172       C  0.11520747  0.06420294  0.13609915     0.23800
C1173       C  0.13442262  0.08002197  0.15492868    -0.12100
C1174       C  0.16625777  0.09553835  0.14967434     0.05200
C1175       C  0.08108291  0.04908133  0.14168722     0.27600
C1176       C  0.05124136  0.06927848  0.13859956    -0.12800
C1177       C  0.01852899  0.05461017  0.14240939     0.05700
C1178       C  0.01556032  0.01976412  0.15005712    -0.08800
C1179       C  0.04585177  0.00035988  0.15478680     0.06600
C1180       C  0.07849252  0.01488249  0.15027718    -0.13100
Br1181     Br  0.11651062  0.08093574  0.18791601    -0.05200
Br1182     Br  0.17621187  0.07971424  0.07316383     0.00400
Br1183     Br  0.97830571  0.08177256  0.13453281     0.00900
Br1184     Br  0.11979391  0.98777952  0.15510449    -0.03500
Br1185     Br  0.19204032  0.11654354  0.17625592     0.01000
Br1186     Br  0.10177375  0.04076145  0.08642644    -0.02800
Br1187     Br  0.05547121  0.11691410  0.12831488    -0.03700
Br1188     Br  0.04290489  0.95378623  0.16746649     0.00300
C1189       C  0.28668683  0.11960672  0.02111326     0.01700
C1190       C  0.28899300  0.14675039  0.00388050     0.04500
C1191       C  0.27516375  0.14277298  0.98002592    -0.11500
C1192       C  0.25778473  0.11203235  0.97349544     0.23800
C1193       C  0.25704586  0.08421619  0.99037175    -0.12100
C1194       C  0.27206958  0.08782028  0.01392778     0.05200
C1195       C  0.23781733  0.10993767  0.94990427     0.27600
C1196       C  0.20507194  0.12576420  0.94799109    -0.12800
C1197       C  0.18422746  0.12040184  0.92699433     0.05700
C1198       C  0.19566169  0.09892252  0.90780131    -0.08800
C1199       C  0.22908175  0.08457974  0.90916077     0.06600
C1200       C  0.25024072  0.09037938  0.93000060    -0.13100
Br1201     Br  0.23288848  0.04215880  0.98202450    -0.05200
Br1202     Br  0.30940428  0.19019379  0.01361510     0.00400
Br1203     Br  0.13844871  0.13995398  0.92535832     0.00900
Br1204     Br  0.29538988  0.06965163  0.93210904    -0.03500
Br1205     Br  0.27043114  0.05015774  0.03713301     0.01000
Br1206     Br  0.27817570  0.18015457  0.95668818    -0.02800
Br1207     Br  0.18749227  0.15247866  0.97506389    -0.03700
Br1208     Br  0.24419909  0.05370823  0.88368604     0.00300
C1209       C  0.90861818  0.21001752  0.39948760     0.01700
C1210       C  0.93143335  0.19975109  0.41856257     0.04500
C1211       C  0.96471378  0.21454227  0.42039014    -0.11500
C1212       C  0.97493752  0.24065798  0.40390277     0.23800
C1213       C  0.95198015  0.25163008  0.38534575    -0.12100
C1214       C  0.91956482  0.23561203  0.38254319     0.05200
C1215       C  0.01076080  0.25471867  0.40454861     0.27600
C1216       C  0.01958153  0.28271756  0.41996030    -0.12800
C1217       C  0.05300336  0.29726053  0.41908252     0.05700
C1218       C  0.07727962  0.28460733  0.40218813    -0.08800
C1219       C  0.06866554  0.25602033  0.38726743     0.06600
C1220       C  0.03562906  0.24104301  0.38854333    -0.13100
Br1221     Br  0.96539405  0.28858543  0.36349159    -0.05200
Br1222     Br  0.91716375  0.16631113  0.44276591     0.00400
Br1223     Br  0.06514220  0.33531206  0.44027584     0.00900
Br1224     Br  0.02391807  0.20224216  0.36782370    -0.03500
Br1225     Br  0.89200548  0.24691284  0.35385622     0.01000
Br1226     Br  0.99681660  0.19873040  0.44518128    -0.02800
Br1227     Br  0.98527602  0.30210110  0.44132591    -0.03700
Br1228     Br  0.10245049  0.23683681  0.36528885     0.00300
C1229       C  0.12721710  0.53105705  0.22221373     0.01700
C1230       C  0.12043958  0.55130386  0.24316912     0.04500
C1231       C  0.12321815  0.53661826  0.26687241    -0.11500
C1232       C  0.13318223  0.50176832  0.26973678     0.23800
C1233       C  0.14057797  0.48178173  0.24884086    -0.12100
C1234       C  0.13682517  0.49608109  0.22522235     0.05200
C1235       C  0.13579471  0.48550187  0.29451257     0.27600
C1236       C  0.16658001  0.48836268  0.30823084    -0.12800
C1237       C  0.17154821  0.46828202  0.32958914     0.05700
C1238       C  0.14597933  0.44423387  0.33700251    -0.08800
C1239       C  0.11416343  0.44322885  0.32407244     0.06600
C1240       C  0.10905893  0.46397993  0.30303854    -0.13100
Br1241     Br  0.15526386  0.43433478  0.25264076    -0.05200
Br1242     Br  0.10729656  0.59907190  0.23936794     0.00400
Br1243     Br  0.21510474  0.47190413  0.34691358     0.00900
Br1244     Br  0.06616940  0.46151763  0.28485933    -0.03500
Br1245     Br  0.14104956  0.46634609  0.19702012     0.01000
Br1246     Br  0.11271596  0.56380381  0.29546439    -0.02800
Br1247     Br  0.20318075  0.51773743  0.29639005    -0.03700
Br1248     Br  0.07756726  0.41297295  0.33479926     0.00300
C1249       C  0.33776960  0.07039678  0.37969764     0.01700
C1250       C  0.33560720  0.07963809  0.40491339     0.04500
C1251       C  0.31740501  0.10937332  0.41199466    -0.11500
C1252       C  0.30355397  0.13166455  0.39412138     0.23800
C1253       C  0.30641790  0.12337811  0.36904936    -0.12100
C1254       C  0.32252133  0.09240487  0.36183208     0.05200
C1255       C  0.28669240  0.16436382  0.40163819     0.27600
C1256       C  0.25043488  0.16696401  0.40151638    -0.12800
C1257       C  0.23457591  0.19911754  0.40565734     0.05700
C1258       C  0.25504933  0.22866998  0.41029306    -0.08800
C1259       C  0.29114073  0.22520164  0.41279485     0.06600
C1260       C  0.30699513  0.19324608  0.40810477    -0.13100
Br1261     Br  0.28839111  0.15491904  0.34457353    -0.05200
Br1262     Br  0.35948285  0.05382293  0.43031574     0.00400
Br1263     Br  0.18505955  0.20295015  0.40253624     0.00900
Br1264     Br  0.35666310  0.18949883  0.40910142    -0.03500
Br1265     Br  0.32176099  0.08006636  0.32747532     0.01000
Br1266     Br  0.31120009  0.11986544  0.44635550    -0.02800
Br1267     Br  0.22269616  0.12671264  0.39432750    -0.03700
Br1268     Br  0.31886496  0.26450780  0.42236847     0.00300
C1269       C  0.20796956  0.28560746  0.30284518     0.01700
C1270       C  0.20774719  0.24932393  0.30106701     0.04500
C1271       C  0.21908694  0.23338906  0.27944704    -0.11500
C1272       C  0.23074740  0.25385433  0.25978442     0.23800
C1273       C  0.22937895  0.29016073  0.26116356    -0.12100
C1274       C  0.21789223  0.30603657  0.28272120     0.05200
C1275       C  0.24469622  0.23729836  0.23765041     0.27600
C1276       C  0.28025786  0.23001046  0.23613039    -0.12800
C1277       C  0.29358411  0.21484350  0.21478559     0.05700
C1278       C  0.27132201  0.20733967  0.19500052    -0.08800
C1279       C  0.23586590  0.21522406  0.19644550     0.06600
C1280       C  0.22248246  0.22974862  0.21788096    -0.13100
Br1281     Br  0.24428669  0.31797121  0.23377466    -0.05200
Br1282     Br  0.19328486  0.22164018  0.32861034     0.00400
Br1283     Br  0.34190078  0.20340123  0.21283740     0.00900
Br1284     Br  0.17374127  0.23941656  0.22027658    -0.03500
Br1285     Br  0.21642403  0.35576424  0.28503670     0.01000
Br1286     Br  0.21972136  0.18365351  0.27689274    -0.02800
Br1287     Br  0.31047013  0.24077200  0.26335376    -0.03700
Br1288     Br  0.20581038  0.20796883  0.16856714     0.00300
C1289       C  0.30879833  0.41051468  0.37094001     0.01700
C1290       C  0.33323782  0.41848765  0.38930198     0.04500
C1291       C  0.36401159  0.43560278  0.38306701    -0.11500
C1292       C  0.37082889  0.44384805  0.35832213     0.23800
C1293       C  0.34648801  0.43549731  0.33992471    -0.12100
C1294       C  0.31543793  0.41904848  0.34626051     0.05200
C1295       C  0.40411370  0.46024903  0.35167141     0.27600
C1296       C  0.40576353  0.49597156  0.34697885    -0.12800
C1297       C  0.43779823  0.51187472  0.34259919     0.05700
C1298       C  0.46867591  0.49240250  0.34385880    -0.08800
C1299       C  0.46657669  0.45608547  0.34717211     0.06600
C1300       C  0.43432540  0.44015330  0.35077233    -0.13100
Br1301     Br  0.35613243  0.44585369  0.30599739    -0.05200
Br1302     Br  0.32548185  0.40392879  0.42265980     0.00400
Br1303     Br  0.43881789  0.56030619  0.33432621     0.00900
Br1304     Br  0.43138351  0.39071828  0.35550859    -0.03500
Br1305     Br  0.28209629  0.40771345  0.32105451     0.01000
Br1306     Br  0.39716492  0.44727139  0.40834608    -0.02800
Br1307     Br  0.36411884  0.52333968  0.34756482    -0.03700
Br1308     Br  0.50747703  0.42767718  0.34886706     0.00300
C1309       C  0.30243807  0.40126354  0.58867807     0.01700
C1310       C  0.27255138  0.42244199  0.58684717     0.04500
C1311       C  0.25138532  0.42115898  0.56560391    -0.11500
C1312       C  0.25903536  0.39809430  0.54645539     0.23800
C1313       C  0.28640159  0.37449347  0.54937469    -0.12100
C1314       C  0.30763009  0.37564484  0.57048886     0.05200
C1315       C  0.23865308  0.39836259  0.52308073     0.27600
C1316       C  0.21126136  0.37494034  0.51962888    -0.12800
C1317       C  0.19573110  0.37115407  0.49629305     0.05700
C1318       C  0.20851055  0.38975883  0.47584309    -0.08800
C1319       C  0.23355365  0.41602627  0.48005304     0.06600
C1320       C  0.24839457  0.42023134  0.50362710    -0.13100
Br1321     Br  0.29555563  0.34134054  0.52375970    -0.05200
Br1322     Br  0.25999869  0.45383668  0.61279471     0.00400
Br1323     Br  0.15617341  0.34109260  0.49278313     0.00900
Br1324     Br  0.28345204  0.45495238  0.50920186    -0.03500
Br1325     Br  0.34297644  0.34087843  0.57469925     0.01000
Br1326     Br  0.21254025  0.45199278  0.56203400    -0.02800
Br1327     Br  0.19625523  0.34689373  0.54683153    -0.03700
Br1328     Br  0.24968598  0.44545879  0.45381926     0.00300
loop_ 
_geom_bond_atom_site_label_1 
_geom_bond_atom_site_label_2 
_geom_bond_distance 
_geom_bond_site_symmetry_2 
_ccdc_geom_bond_type 
Zn1           O5   1.947       .  S
Zn1           O6   2.013       .  S
Zn1          O10   2.016       .  S
Zn1          O17   2.017       .  S
Zn2           O5   1.963       .  S
Zn2           O7   2.045       .  S
Zn2           O9   2.044       .  S
Zn2          O13   2.039       .  S
Zn3           O5   1.952       .  S
Zn3           O8   2.047       .  S
Zn3          O11   2.027       .  S
Zn3          O14   2.037       .  S
Zn4           O5   1.942       .  S
Zn4          O12   1.981       .  S
Zn4          O15   1.988       .  S
Zn4          O16   1.980       .  S
O6           C18   1.274       .  A
O7           C19   1.278       .  A
O8           C20   1.277       .  A
O9           C18   1.278       .  A
O10          C20   1.275       .  A
O11          C19   1.277       .  A
O12          C21   1.270       .  A
O13          C22   1.274       .  A
O14          C21   1.275       .  A
O15          C22   1.268       .  A
O16          C23   1.267       .  A
O17          C23   1.271       .  A
C18        C1238   1.492       .  S
C19        C1318   1.499       .  S
C20        C1218   1.481       .  S
C21        C1258   1.476       .  S
C22        C1289   1.471       .  S
C23        C1269   1.461       .  S
Zn24         O28   1.913       .  S
Zn24         O29   1.970       .  S
Zn24         O33   1.975       .  S
Zn24         O40   1.955       .  S
Zn25         O28   1.946       .  S
Zn25         O30   2.026       .  S
Zn25         O32   2.042       .  S
Zn25         O36   1.991       .  S
Zn26         O28   1.951       .  S
Zn26         O31   2.018       .  S
Zn26         O34   2.014       .  S
Zn26         O37   2.005       .  S
Zn27         O28   1.971       .  S
Zn27         O35   2.063       .  S
Zn27         O38   2.086       .  S
Zn27         O39   2.100       .  S
O29          C41   1.266       .  A
O30          C42   1.274       .  A
O31          C43   1.272       .  A
O32          C41   1.275       .  A
O33          C43   1.267       .  A
O34          C42   1.273       .  A
O35          C44   1.280       .  A
O36          C45   1.273       .  A
O37          C44   1.274       .  A
O38          C45   1.284       .  A
O39          C46   1.283       .  A
O40          C46   1.267       .  A
C41        C1169   1.478       .  S
C42        C1129   1.487       .  S
C43        C1278   1.465       .  S
C44        C1118   1.483       .  S
C45        C1189   1.481       .  S
C46        C1158   1.478       .  S
Zn47         O51   1.971       .  S
Zn47         O52   2.066       .  S
Zn47         O56   2.088       .  S
Zn47         O63   2.104       .  S
Zn48         O51   1.952       .  S
Zn48         O53   1.992       .  S
Zn48         O55   1.995       .  S
Zn48         O59   1.997       .  S
Zn49         O51   1.951       .  S
Zn49         O54   1.992       .  S
Zn49         O57   2.008   1_565  S
Zn49         O60   2.036   1_565  S
Zn50         O51   1.927       .  S
Zn50         O58   1.989   1_565  S
Zn50         O61   1.991       .  S
Zn50         O62   1.972       .  S
O52          C64   1.279       .  A
O53          C65   1.271   1_565  A
O54          C66   1.273       .  A
O55          C64   1.271       .  A
O56          C66   1.284       .  A
O57          C65   1.271       .  A
O58          C67   1.267       .  A
O59          C68   1.269       .  A
O60          C67   1.273       .  A
O61          C68   1.270       .  A
O62          C69   1.269       .  A
O63          C69   1.285       .  A
C64        C1038   1.477       .  S
C65        C1069   1.477       .  S
C66        C1149   1.482       .  S
C67        C1249   1.492       .  S
C68        C1098   1.463       .  S
C69        C1049   1.483       .  S
Zn70         O74   1.987       .  S
Zn70         O75   2.083       .  S
Zn70         O79   2.133       .  S
Zn70         O86   2.107       .  S
Zn71         O74   1.950       .  S
Zn71         O76   1.998       .  S
Zn71         O78   1.986       .  S
Zn71         O82   2.000       .  S
Zn72         O74   1.938       .  S
Zn72         O77   1.971       .  S
Zn72         O80   1.978       .  S
Zn72         O83   1.979   1_545  S
Zn73         O74   1.964       .  S
Zn73         O81   2.055   1_545  S
Zn73         O84   2.053   1_545  S
Zn73         O85   2.010       .  S
O75          C87   1.281       .  A
O76          C88   1.269       .  A
O77          C89   1.267       .  A
O78          C87   1.269       .  A
O79          C89   1.288       .  A
O80          C88   1.267       .  A
O81          C90   1.276       .  A
O82          C91   1.271       .  A
O83          C90   1.266       .  A
O84          C91   1.276   1_565  A
O85          C92   1.276       .  A
O86          C92   1.288       .  A
C87         C938   1.482       .  S
C88        C1089   1.470       .  S
C89         C969   1.492       .  S
C90         C989   1.474       .  S
C91         C958   1.492   1_545  S
C92        C1009   1.492       .  S
Zn93         O97   1.926       .  S
Zn93         O98   1.950       .  S
Zn93        O102   1.956       .  S
Zn93        O109   1.969   1_565  S
Zn94         O97   1.982       .  S
Zn94         O99   2.087       .  S
Zn94        O101   2.083       .  S
Zn94        O105   2.086       .  S
Zn95         O97   1.948       .  S
Zn95        O100   2.004       .  S
Zn95        O103   1.997       .  S
Zn95        O106   1.978       .  S
Zn96         O97   1.960   1_545  S
Zn96        O104   2.045       .  S
Zn96        O107   2.003   1_545  S
Zn96        O108   2.073       .  S
O98         C110   1.266       .  A
O99         C111   1.281       .  A
O100        C112   1.269       .  A
O101        C110   1.282       .  A
O102        C112   1.264       .  A
O103        C111   1.271       .  A
O104        C113   1.278       .  A
O105        C114   1.285       .  A
O106        C113   1.270   1_565  A
O107        C114   1.275       .  A
O108        C115   1.277       .  A
O109        C115   1.264       .  A
C110        C858   1.472       .  S
C111        C829   1.497       .  S
C112        C918   1.463       .  S
C113       C1178   1.482   1_655  S
C114        C898   1.481       .  S
C115        C869   1.499       .  S
Zn116       O120   1.945       .  S
Zn116       O121   2.000       .  S
Zn116       O125   2.002       .  S
Zn116       O132   1.991       .  S
Zn117       O120   1.946   1_565  S
Zn117       O122   1.997   1_565  S
Zn117       O124   2.023       .  S
Zn117       O128   2.024       .  S
Zn118       O120   1.968       .  S
Zn118       O123   2.073       .  S
Zn118       O126   2.089       .  S
Zn118       O129   2.111       .  S
Zn119       O120   1.922       .  S
Zn119       O127   1.957       .  S
Zn119       O130   1.985   1_545  S
Zn119       O131   1.979       .  S
O121        C133   1.272   1_545  A
O122        C134   1.274       .  A
O123        C135   1.281       .  A
O124        C133   1.273       .  A
O125        C135   1.273       .  A
O126        C134   1.285       .  A
O127        C136   1.267       .  A
O128        C137   1.273       .  A
O129        C136   1.286       .  A
O130        C137   1.267       .  A
O131        C138   1.268       .  A
O132        C138   1.269       .  A
C133        C778   1.485   1_455  S
C134        C809   1.482       .  S
C135        C758   1.497       .  S
C136       C1198   1.482       .  S
C137        C789   1.482       .  S
C138        C909   1.463       .  S
Zn139       O143   1.946       .  S
Zn139       O144   2.009       .  S
Zn139       O148   2.012       .  S
Zn139       O155   2.006       .  S
Zn140       O143   1.972       .  S
Zn140       O145   2.107       .  S
Zn140       O147   2.108       .  S
Zn140       O151   2.067       .  S
Zn141       O143   1.929       .  S
Zn141       O146   1.982       .  S
Zn141       O149   1.963       .  S
Zn141       O152   1.985       .  S
Zn142       O143   1.953       .  S
Zn142       O150   2.022       .  S
Zn142       O153   1.996       .  S
Zn142       O154   2.004       .  S
O144        C156   1.275       .  A
O145        C157   1.285       .  A
O146        C158   1.267       .  A
O147        C156   1.287       .  A
O148        C158   1.272       .  A
O149        C157   1.268       .  A
O150        C159   1.271       .  A
O151        C160   1.280       .  A
O152        C159   1.268       .  A
O153        C160   1.273       .  A
O154        C161   1.271       .  A
O155        C161   1.270       .  A
C156        C978   1.492       .  S
C157        C889   1.485       .  S
C158       C1078   1.478       .  S
C159        C729   1.476       .  S
C160       C1209   1.493       .  S
C161        C718   1.468       .  S
Zn162       O166   1.934       .  S
Zn162       O167   1.968       .  S
Zn162       O171   1.966       .  S
Zn162       O178   1.955       .  S
Zn163       O166   1.970       .  S
Zn163       O168   2.056       .  S
Zn163       O170   2.047       .  S
Zn163       O174   2.074       .  S
Zn164       O166   1.958       .  S
Zn164       O169   2.055       .  S
Zn164       O172   2.044       .  S
Zn164       O175   2.041       .  S
Zn165       O166   1.950       .  S
Zn165       O173   2.027       .  S
Zn165       O176   2.002       .  S
Zn165       O177   2.020       .  S
O167        C179   1.266       .  A
O168        C180   1.282       .  A
O169        C181   1.275       .  A
O170        C179   1.275       .  A
O171        C181   1.265       .  A
O172        C180   1.280       .  A
O173        C182   1.276       .  A
O174        C183   1.279       .  A
O175        C182   1.278       .  A
O176        C183   1.274       .  A
O177        C184   1.271       .  A
O178        C184   1.265       .  A
C179        C669   1.473       .  S
C180        C698   1.496       .  S
C181        C878   1.472       .  S
C182       C1109   1.485       .  S
C183        C658   1.505       .  S
C184        C738   1.473       .  S
Zn185       O189   1.949       .  S
Zn185       O190   2.032       .  S
Zn185       O194   2.005       .  S
Zn185       O201   2.013       .  S
Zn186       O189   1.965       .  S
Zn186       O191   2.100       .  S
Zn186       O193   2.078       .  S
Zn186       O197   2.086       .  S
Zn187       O189   1.930       .  S
Zn187       O192   1.969       .  S
Zn187       O195   1.957       .  S
Zn187       O198   2.000       .  S
Zn188       O189   1.935       .  S
Zn188       O196   2.030       .  S
Zn188       O199   1.996       .  S
Zn188       O200   2.029       .  S
O190        C202   1.277       .  A
O191        C203   1.284       .  A
O192        C204   1.267       .  A
O193        C202   1.281       .  A
O194        C204   1.270       .  A
O195        C203   1.268       .  A
O196        C205   1.273       .  A
O197        C206   1.285       .  A
O198        C205   1.268       .  A
O199        C206   1.275       .  A
O200        C207   1.274       .  A
O201        C207   1.274       .  A
C202        C549   1.492       .  S
C203        C578   1.478       .  S
C204        C589   1.474       .  S
C205        C618   1.490       .  S
C206        C638   1.484       .  S
C207        C998   1.481       .  S
Zn208       O212   1.933       .  S
Zn208       O213   1.974       .  S
Zn208       O217   1.973       .  S
Zn208       O224   1.991       .  S
Zn209       O212   1.982       .  S
Zn209       O214   2.084       .  S
Zn209       O216   2.110       .  S
Zn209       O220   2.075       .  S
Zn210       O212   1.953       .  S
Zn210       O215   2.005       .  S
Zn210       O218   2.006       .  S
Zn210       O221   1.995       .  S
Zn211       O212   1.962       .  S
Zn211       O219   2.028       .  S
Zn211       O222   1.988       .  S
Zn211       O223   2.039       .  S
O213        C225   1.269       .  A
O214        C226   1.282       .  A
O215        C227   1.271       .  A
O216        C225   1.285       .  A
O217        C227   1.267       .  A
O218        C226   1.273       .  A
O219        C228   1.273       .  A
O220        C229   1.283       .  A
O221        C228   1.269       .  A
O222        C229   1.273       .  A
O223        C230   1.273       .  A
O224        C230   1.269       .  A
C225       C1018   1.490       .  S
C226        C509   1.490       .  S
C227        C598   1.456       .  S
C228        C529   1.485       .  S
C229        C849   1.476       .  S
C230        C769   1.479       .  S
Zn231       O235   1.958       .  S
Zn231       O236   2.004       .  S
Zn231       O240   2.027       .  S
Zn231       O247   2.035       .  S
Zn232       O235   1.983       .  S
Zn232       O237   2.061       .  S
Zn232       O239   2.082       .  S
Zn232       O243   2.097       .  S
Zn233       O235   1.954       .  S
Zn233       O238   2.003       .  S
Zn233       O241   2.007       .  S
Zn233       O244   2.016       .  S
Zn234       O235   1.935       .  S
Zn234       O242   1.981       .  S
Zn234       O245   1.960       .  S
Zn234       O246   1.977       .  S
O236        C248   1.274       .  A
O237        C249   1.279       .  A
O238        C250   1.271       .  A
O239        C248   1.283       .  A
O240        C250   1.273       .  A
O241        C249   1.274       .  A
O242        C251   1.267       .  A
O243        C252   1.283       .  A
O244        C251   1.272       .  A
O245        C252   1.267       .  A
O246        C253   1.266       .  A
O247        C253   1.273       .  A
C248        C649   1.483       .  S
C249       C1029   1.487       .  S
C250       C1298   1.489       .  S
C251        C489   1.468       .  S
C252        C629   1.479       .  S
C253        C709   1.467       .  S
Zn254       O258   1.933       .  S
Zn254       O259   2.017       .  S
Zn254       O263   2.013       .  S
Zn254       O270   2.034       .  S
Zn255       O258   1.943       .  S
Zn255       O260   2.015       .  S
Zn255       O262   2.050       .  S
Zn255       O266   2.025       .  S
Zn256       O258   1.955       .  S
Zn256       O261   2.045       .  S
Zn256       O264   2.055       .  S
Zn256       O267   2.039       .  S
Zn257       O258   1.942       .  S
Zn257       O265   1.987       .  S
Zn257       O268   1.970       .  S
Zn257       O269   1.992       .  S
O259        C271   1.275       .  A
O260        C272   1.275       .  A
O261        C273   1.281       .  A
O262        C271   1.279       .  A
O263        C273   1.277       .  A
O264        C272   1.278       .  A
O265        C274   1.268       .  A
O266        C275   1.275       .  A
O267        C274   1.274       .  A
O268        C275   1.268       .  A
O269        C276   1.268       .  A
O270        C276   1.273       .  A
C271        C929   1.483       .  S
C272       C1309   1.502       .  S
C273        C469   1.485       .  S
C274        C449   1.475       .  S
C275        C498   1.474       .  S
C276        C609   1.471       .  S
Zn277       O281   1.927       .  S
Zn277       O282   2.037       .  S
Zn277       O286   2.016       .  S
Zn277       O293   2.033       .  S
Zn278       O281   1.934       .  S
Zn278       O283   2.041       .  S
Zn278       O285   2.065       .  S
Zn278       O289   2.040       .  S
Zn279       O281   1.944       .  S
Zn279       O284   2.063       .  S
Zn279       O287   2.070       .  S
Zn279       O290   2.066       .  S
Zn280       O281   1.922       .  S
Zn280       O288   1.992       .  S
Zn280       O291   1.997       .  S
Zn280       O292   1.984       .  S
O282        C294   1.277       .  A
O283        C295   1.281       .  A
O284        C296   1.282       .  A
O285        C294   1.280       .  A
O286        C296   1.277       .  A
O287        C295   1.284       .  A
O288        C297   1.269       .  A
O289        C298   1.276       .  A
O290        C297   1.276       .  A
O291        C298   1.272       .  A
O292        C299   1.266       .  A
O293        C299   1.270       .  A
C294        C558   1.496       .  S
C295       C1058   1.509       .  S
C296        C818   1.500       .  S
C297        C949   1.481       .  S
C298        C458   1.471       .  S
C299        C429   1.490       .  S
Zn300       O304   1.945       .  S
Zn300       O305   1.993       .  S
Zn300       O309   2.009       .  S
Zn300       O316   1.996       .  S
Zn301       O304   1.945       .  S
Zn301       O306   2.026       .  S
Zn301       O308   1.993       .  S
Zn301       O312   1.975       .  S
Zn302       O304   1.916       .  S
Zn302       O307   1.993       .  S
Zn302       O310   1.981       .  S
Zn302       O313   1.953       .  S
Zn303       O304   1.970       .  S
Zn303       O311   2.106       .  S
Zn303       O314   2.097       .  S
Zn303       O315   2.084       .  S
O305        C317   1.270       .  A
O306        C318   1.271       .  A
O307        C319   1.269       .  A
O308        C317   1.270       .  A
O309        C319   1.271       .  A
O310        C318   1.266       .  A
O311        C320   1.285       .  A
O312        C321   1.270       .  A
O313        C320   1.269       .  A
O314        C321   1.285       .  A
O315        C322   1.282       .  A
O316        C322   1.271       .  A
C317        C798   1.471       .  S
C318        C398   1.485       .  S
C319        C438   1.475       .  S
C320        C478   1.479       .  S
C321        C418   1.480       .  S
C322        C518   1.483       .  S
Zn323       O327   1.935       .  S
Zn323       O328   2.030       .  S
Zn323       O332   2.003       .  S
Zn323       O339   2.028       .  S
Zn324       O327   1.950       .  S
Zn324       O329   2.037       .  S
Zn324       O331   2.060       .  S
Zn324       O335   2.042       .  S
Zn325       O327   1.964       .  S
Zn325       O330   2.065       .  S
Zn325       O333   2.060       .  S
Zn325       O336   2.056       .  S
Zn326       O327   1.929       .  S
Zn326       O334   1.984       .  S
Zn326       O337   1.972       .  S
Zn326       O338   1.970       .  S
O328        C340   1.275       .  A
O329        C341   1.279       .  A
O330        C342   1.280       .  A
O331        C340   1.278       .  A
O332        C342   1.274       .  A
O333        C341   1.282       .  A
O334        C343   1.268       .  A
O335        C344   1.276       .  A
O336        C343   1.276       .  A
O337        C344   1.269       .  A
O338        C345   1.267       .  A
O339        C345   1.273       .  A
C340        C749   1.510       .  S
C341        C569   1.509       .  S
C342        C689   1.497       .  S
C343        C538   1.482       .  S
C344        C389   1.478   1_655  S
C345        C378   1.463       .  S
Zn346       O350   1.933       .  S
Zn346       O351   2.032       .  S
Zn346       O355   2.030       .  S
Zn346       O362   2.062       .  S
Zn347       O350   1.939       .  S
Zn347       O352   1.989       .  S
Zn347       O354   1.974       .  S
Zn347       O358   1.989       .  S
Zn348       O350   1.946       .  S
Zn348       O353   2.059       .  S
Zn348       O356   2.056       .  S
Zn348       O359   2.061       .  S
Zn349       O350   1.934       .  S
Zn349       O357   2.019       .  S
Zn349       O360   2.033       .  S
Zn349       O361   2.048       .  S
O351        C363   1.275       .  A
O352        C364   1.268       .  A
O353        C365   1.282       .  A
O354        C363   1.267       .  A
O355        C365   1.278       .  A
O356        C364   1.274       .  A
O357        C366   1.278       .  A
O358        C367   1.268       .  A
O359        C366   1.285       .  A
O360        C367   1.275       .  A
O361        C368   1.277       .  A
O362        C368   1.279       .  A
C363        C369   1.483       .  S
C364       C1138   1.489       .  S
C365        C409   1.500       .  S
C366       C1229   1.484       .  S
C367        C678   1.470   1_455  S
C368        C838   1.493       .  S
C369        C370   1.416       .  A
C369        C374   1.421       .  A
C370        C371   1.407       .  A
C370       Br382   1.933       .  S
C371        C372   1.408       .  A
C371       Br386   1.932   1_554  S
C372        C375   1.478   1_454  S
C372        C373   1.405       .  A
C373        C374   1.402       .  A
C373       Br381   1.935   1_455  S
C374       Br385   1.937       .  S
C375        C376   1.409       .  A
C375        C380   1.411   1_655  A
C376        C377   1.401       .  A
C376       Br387   1.932   1_556  S
C377        C378   1.406       .  A
C377       Br383   1.928       .  S
C378        C379   1.407       .  A
C379        C380   1.406   1_655  A
C379       Br388   1.929   1_655  S
C380       Br384   1.930       .  S
C389        C390   1.414       .  A
C389        C394   1.413       .  A
C390        C391   1.408       .  A
C390       Br402   1.931       .  S
C391        C392   1.408       .  A
C391       Br406   1.931       .  S
C392        C395   1.480       .  S
C392        C393   1.407       .  A
C393        C394   1.404       .  A
C393       Br401   1.931       .  S
C394       Br405   1.932   1_455  S
C395        C396   1.408       .  A
C395        C400   1.404       .  A
C396        C397   1.408       .  A
C396       Br407   1.932       .  S
C397        C398   1.416       .  A
C397       Br403   1.932       .  S
C398        C399   1.420       .  A
C399        C400   1.404       .  A
C399       Br408   1.936       .  S
C400       Br404   1.933       .  S
C409        C410   1.417       .  A
C409        C414   1.420       .  A
C410        C411   1.413       .  A
C410       Br422   1.932       .  S
C411        C412   1.411       .  A
C411       Br426   1.931       .  S
C412        C415   1.499       .  S
C412        C413   1.409       .  A
C413        C414   1.413       .  A
C413       Br421   1.931       .  S
C414       Br425   1.931       .  S
C415        C416   1.414       .  A
C415        C420   1.413       .  A
C416        C417   1.410   1_554  A
C416       Br427   1.931       .  S
C417        C418   1.407       .  A
C417       Br423   1.929       .  S
C418        C419   1.411       .  A
C419        C420   1.413   1_556  A
C419       Br428   1.928       .  S
C420       Br424   1.928       .  S
C429        C430   1.422       .  A
C429        C434   1.426       .  A
C430        C431   1.407       .  A
C430       Br442   1.933       .  S
C431        C432   1.405       .  A
C431       Br446   1.932       .  S
C432        C435   1.476       .  S
C432        C433   1.401       .  A
C433        C434   1.402       .  A
C433       Br441   1.936       .  S
C434       Br445   1.940       .  S
C435        C436   1.405       .  A
C435        C440   1.408       .  A
C436        C437   1.403       .  A
C436       Br447   1.932       .  S
C437        C438   1.416       .  A
C437       Br443   1.932       .  S
C438        C439   1.412       .  A
C439        C440   1.405       .  A
C439       Br448   1.930       .  S
C440       Br444   1.932       .  S
C449        C450   1.410       .  A
C449        C454   1.411       .  A
C450        C451   1.407       .  A
C450       Br462   1.930       .  S
C451        C452   1.410       .  A
C451       Br466   1.931       .  S
C452        C455   1.484       .  S
C452        C453   1.409       .  A
C453        C454   1.407       .  A
C453       Br461   1.929       .  S
C454       Br465   1.930       .  S
C455        C456   1.409       .  A
C455        C460   1.411       .  A
C456        C457   1.405       .  A
C456       Br467   1.930       .  S
C457        C458   1.409       .  A
C457       Br463   1.931       .  S
C458        C459   1.406       .  A
C459        C460   1.409       .  A
C459       Br468   1.927       .  S
C460       Br464   1.929       .  S
C469        C470   1.414       .  A
C469        C474   1.415       .  A
C470        C471   1.411       .  A
C470       Br482   1.930       .  S
C471        C472   1.408       .  A
C471       Br486   1.927       .  S
C472        C475   1.490       .  S
C472        C473   1.410       .  A
C473        C474   1.408       .  A
C473       Br481   1.932       .  S
C474       Br485   1.934       .  S
C475        C476   1.407       .  A
C475        C480   1.412       .  A
C476        C477   1.408       .  A
C476       Br487   1.930       .  S
C477        C478   1.413       .  A
C477       Br483   1.930       .  S
C478        C479   1.408       .  A
C479        C480   1.412       .  A
C479       Br488   1.924       .  S
C480       Br484   1.928       .  S
C489        C490   1.411       .  A
C489        C494   1.410       .  A
C490        C491   1.403       .  A
C490       Br502   1.933       .  S
C491        C492   1.407       .  A
C491       Br506   1.932       .  S
C492        C495   1.476       .  S
C492        C493   1.408       .  A
C493        C494   1.405       .  A
C493       Br501   1.930       .  S
C494       Br505   1.931       .  S
C495        C496   1.405       .  A
C495        C500   1.408       .  A
C496        C497   1.402       .  A
C496       Br507   1.932       .  S
C497        C498   1.416       .  A
C497       Br503   1.937       .  S
C498        C499   1.412       .  A
C499        C500   1.406       .  A
C499       Br508   1.931       .  S
C500       Br504   1.930       .  S
C509        C510   1.414       .  A
C509        C514   1.410       .  A
C510        C511   1.412       .  A
C510       Br522   1.929       .  S
C511        C512   1.409       .  A
C511       Br526   1.929       .  S
C512        C515   1.496       .  S
C512        C513   1.411       .  A
C513        C514   1.412       .  A
C513       Br521   1.929       .  S
C514       Br525   1.925       .  S
C515        C516   1.412       .  A
C515        C520   1.410       .  A
C516        C517   1.411       .  A
C516       Br527   1.929       .  S
C517        C518   1.409       .  A
C517       Br523   1.927       .  S
C518        C519   1.411       .  A
C519        C520   1.412       .  A
C519       Br528   1.928       .  S
C520       Br524   1.927       .  S
C529        C530   1.416       .  A
C529        C534   1.418       .  A
C530        C531   1.407       .  A
C530       Br542   1.930       .  S
C531        C532   1.406       .  A
C531       Br546   1.930       .  S
C532        C535   1.484       .  S
C532        C533   1.407       .  A
C533        C534   1.408       .  A
C533       Br541   1.931       .  S
C534       Br545   1.934       .  S
C535        C536   1.405       .  A
C535        C540   1.411       .  A
C536        C537   1.406       .  A
C536       Br547   1.931       .  S
C537        C538   1.415       .  A
C537       Br543   1.929       .  S
C538        C539   1.410       .  A
C539        C540   1.410       .  A
C539       Br548   1.925       .  S
C540       Br544   1.930       .  S
C549        C550   1.411       .  A
C549        C554   1.412       .  A
C550        C551   1.415       .  A
C550       Br562   1.926       .  S
C551        C552   1.412       .  A
C551       Br566   1.927       .  S
C552        C555   1.502   1_655  S
C552        C553   1.412       .  A
C553        C554   1.413       .  A
C553       Br561   1.929       .  S
C554       Br565   1.929       .  S
C555        C556   1.411       .  A
C555        C560   1.411       .  A
C556        C557   1.416       .  A
C556       Br567   1.929       .  S
C557        C558   1.416       .  A
C557       Br563   1.931       .  S
C558        C559   1.413       .  A
C559        C560   1.414       .  A
C559       Br568   1.929       .  S
C560       Br564   1.929   1_455  S
C569        C570   1.426       .  A
C569        C574   1.425       .  A
C570        C571   1.413       .  A
C570       Br582   1.930       .  S
C571        C572   1.404       .  A
C571       Br586   1.931       .  S
C572        C575   1.493       .  S
C572        C573   1.407       .  A
C573        C574   1.412       .  A
C573       Br581   1.934       .  S
C574       Br585   1.933       .  S
C575        C576   1.409       .  A
C575        C580   1.411       .  A
C576        C577   1.406       .  A
C576       Br587   1.931       .  S
C577        C578   1.410       .  A
C577       Br583   1.928       .  S
C578        C579   1.411       .  A
C579        C580   1.414       .  A
C579       Br588   1.927       .  S
C580       Br584   1.926       .  S
C589        C590   1.419       .  A
C589        C594   1.414       .  A
C590        C591   1.399       .  A
C590       Br602   1.937       .  S
C591        C592   1.402       .  A
C591       Br606   1.934       .  S
C592        C595   1.469       .  S
C592        C593   1.406       .  A
C593        C594   1.405       .  A
C593       Br601   1.930       .  S
C594       Br605   1.932       .  S
C595        C596   1.409       .  A
C595        C600   1.406       .  A
C596        C597   1.404       .  A
C596       Br607   1.929       .  S
C597        C598   1.404       .  A
C597       Br603   1.927       .  S
C598        C599   1.408       .  A
C599        C600   1.399       .  A
C599       Br608   1.933       .  S
C600       Br604   1.932       .  S
C609        C610   1.409       .  A
C609        C614   1.408       .  A
C610        C611   1.403       .  A
C610       Br622   1.930       .  S
C611        C612   1.408       .  A
C611       Br626   1.932       .  S
C612        C615   1.484       .  S
C612        C613   1.411       .  A
C613        C614   1.411       .  A
C613       Br621   1.927       .  S
C614       Br625   1.927       .  S
C615        C616   1.406       .  A
C615        C620   1.407       .  A
C616        C617   1.410       .  A
C616       Br627   1.931       .  S
C617        C618   1.420       .  A
C617       Br623   1.933       .  S
C618        C619   1.418       .  A
C619        C620   1.407       .  A
C619       Br628   1.933       .  S
C620       Br624   1.932       .  S
C629        C630   1.409       .  A
C629        C634   1.411       .  A
C630        C631   1.410       .  A
C630       Br642   1.926       .  S
C631        C632   1.411       .  A
C631       Br646   1.930       .  S
C632        C635   1.493       .  S
C632        C633   1.409       .  A
C633        C634   1.411       .  A
C633       Br641   1.927       .  S
C634       Br645   1.928       .  S
C635        C636   1.410       .  A
C635        C640   1.411       .  A
C636        C637   1.413       .  A
C636       Br647   1.927       .  S
C637        C638   1.411       .  A
C637       Br643   1.925       .  S
C638        C639   1.411       .  A
C639        C640   1.409       .  A
C639       Br648   1.932       .  S
C640       Br644   1.931       .  S
C649        C650   1.411       .  A
C649        C654   1.409       .  A
C650        C651   1.413       .  A
C650       Br662   1.929       .  S
C651        C652   1.412       .  A
C651       Br666   1.928       .  S
C652        C655   1.499       .  S
C652        C653   1.413       .  A
C653        C654   1.412       .  A
C653       Br661   1.930       .  S
C654       Br665   1.928       .  S
C655        C656   1.410       .  A
C655        C660   1.410       .  A
C656        C657   1.410       .  A
C656       Br667   1.932       .  S
C657        C658   1.418       .  A
C657       Br663   1.933       .  S
C658        C659   1.422       .  A
C659        C660   1.417       .  A
C659       Br668   1.929       .  S
C660       Br664   1.929       .  S
C669        C670   1.411       .  A
C669        C674   1.411       .  A
C670        C671   1.407       .  A
C670       Br682   1.929       .  S
C671        C672   1.408       .  A
C671       Br686   1.929       .  S
C672        C675   1.480       .  S
C672        C673   1.409       .  A
C673        C674   1.405       .  A
C673       Br681   1.931       .  S
C674       Br685   1.931       .  S
C675        C676   1.406       .  A
C675        C680   1.411       .  A
C676        C677   1.402       .  A
C676       Br687   1.932       .  S
C677        C678   1.410       .  A
C677       Br683   1.928       .  S
C678        C679   1.408       .  A
C679        C680   1.410       .  A
C679       Br688   1.928       .  S
C680       Br684   1.928       .  S
C689        C690   1.420       .  A
C689        C694   1.416       .  A
C690        C691   1.415       .  A
C690       Br702   1.932       .  S
C691        C692   1.409       .  A
C691       Br706   1.929       .  S
C692        C695   1.497       .  S
C692        C693   1.409       .  A
C693        C694   1.410       .  A
C693       Br701   1.930       .  S
C694       Br705   1.932       .  S
C695        C696   1.409       .  A
C695        C700   1.410       .  A
C696        C697   1.411   1_556  A
C696       Br707   1.931       .  S
C697        C698   1.418       .  A
C697       Br703   1.933       .  S
C698        C699   1.415   1_554  A
C699        C700   1.415       .  A
C699       Br708   1.928   1_556  S
C700       Br704   1.928       .  S
C709        C710   1.409       .  A
C709        C714   1.406       .  A
C710        C711   1.405       .  A
C710       Br722   1.929       .  S
C711        C712   1.407       .  A
C711       Br726   1.929       .  S
C712        C715   1.479       .  S
C712        C713   1.410       .  A
C713        C714   1.406       .  A
C713       Br721   1.929       .  S
C714       Br725   1.929       .  S
C715        C716   1.410       .  A
C715        C720   1.407       .  A
C716        C717   1.407       .  A
C716       Br727   1.927       .  S
C717        C718   1.405       .  A
C717       Br723   1.926       .  S
C718        C719   1.411       .  A
C719        C720   1.404       .  A
C719       Br728   1.934       .  S
C720       Br724   1.931       .  S
C729        C730   1.413       .  A
C729        C734   1.415       .  A
C730        C731   1.405       .  A
C730       Br742   1.931       .  S
C731        C732   1.406       .  A
C731       Br746   1.932       .  S
C732        C735   1.475       .  S
C732        C733   1.406       .  A
C733        C734   1.404       .  A
C733       Br741   1.933       .  S
C734       Br745   1.928       .  S
C735        C736   1.404       .  A
C735        C740   1.408       .  A
C736        C737   1.400       .  A
C736       Br747   1.931       .  S
C737        C738   1.415       .  A
C737       Br743   1.937       .  S
C738        C739   1.413       .  A
C739        C740   1.406       .  A
C739       Br748   1.932       .  S
C740       Br744   1.930       .  S
C749        C750   1.426       .  A
C749        C754   1.423       .  A
C750        C751   1.412       .  A
C750       Br762   1.936       .  S
C751        C752   1.407       .  A
C751       Br766   1.934       .  S
C752        C755   1.497   1_655  S
C752        C753   1.407       .  A
C753        C754   1.415       .  A
C753       Br761   1.931   1_655  S
C754       Br765   1.928       .  S
C755        C756   1.410       .  A
C755        C760   1.409   1_455  A
C756        C757   1.412       .  A
C756       Br767   1.930       .  S
C757        C758   1.417       .  A
C757       Br763   1.931       .  S
C758        C759   1.419       .  A
C759        C760   1.412   1_455  A
C759       Br768   1.933   1_455  S
C760       Br764   1.931       .  S
C769        C770   1.410       .  A
C769        C774   1.414       .  A
C770        C771   1.410       .  A
C770       Br782   1.929       .  S
C771        C772   1.411       .  A
C771       Br786   1.929       .  S
C772        C775   1.485       .  S
C772        C773   1.406       .  A
C773        C774   1.406       .  A
C773       Br781   1.930       .  S
C774       Br785   1.932       .  S
C775        C776   1.408       .  A
C775        C780   1.407       .  A
C776        C777   1.407       .  A
C776       Br787   1.930       .  S
C777        C778   1.413       .  A
C777       Br783   1.931   1_565  S
C778        C779   1.419       .  A
C779        C780   1.409       .  A
C779       Br788   1.933   1_655  S
C780       Br784   1.931       .  S
C789        C790   1.420       .  A
C789        C794   1.414       .  A
C790        C791   1.405       .  A
C790       Br802   1.932       .  S
C791        C792   1.403       .  A
C791       Br806   1.933       .  S
C792        C795   1.476       .  S
C792        C793   1.406       .  A
C793        C794   1.405       .  A
C793       Br801   1.930       .  S
C794       Br805   1.929       .  S
C795        C796   1.407       .  A
C795        C800   1.407       .  A
C796        C797   1.405       .  A
C796       Br807   1.928       .  S
C797        C798   1.411       .  A
C797       Br803   1.931       .  S
C798        C799   1.414       .  A
C799        C800   1.402       .  A
C799       Br808   1.935       .  S
C800       Br804   1.933       .  S
C809        C810   1.408       .  A
C809        C814   1.410       .  A
C810        C811   1.412   1_545  A
C810       Br822   1.926       .  S
C811        C812   1.413   1_565  A
C811       Br826   1.930       .  S
C812        C815   1.497   1_545  S
C812        C813   1.411       .  A
C813        C814   1.412       .  A
C813       Br821   1.927       .  S
C814       Br825   1.928       .  S
C815        C816   1.409       .  A
C815        C820   1.410       .  A
C816        C817   1.415       .  A
C816       Br827   1.930   1_565  S
C817        C818   1.421       .  A
C817       Br823   1.932       .  S
C818        C819   1.417       .  A
C819        C820   1.410       .  A
C819       Br828   1.933       .  S
C820       Br824   1.932       .  S
C829        C830   1.417       .  A
C829        C834   1.414       .  A
C830        C831   1.410       .  A
C830       Br842   1.935       .  S
C831        C832   1.409       .  A
C831       Br846   1.932   1_655  S
C832        C835   1.501       .  S
C832        C833   1.413       .  A
C833        C834   1.418       .  A
C833       Br841   1.928       .  S
C834       Br845   1.928       .  S
C835        C836   1.410       .  A
C835        C840   1.413   1_655  A
C836        C837   1.411       .  A
C836       Br847   1.931       .  S
C837        C838   1.413   1_655  A
C837       Br843   1.922       .  S
C838        C839   1.411       .  A
C839        C840   1.416       .  A
C839       Br848   1.927       .  S
C840       Br844   1.927       .  S
C849        C850   1.410       .  A
C849        C854   1.408       .  A
C850        C851   1.408   1_556  A
C850       Br862   1.930       .  S
C851        C852   1.409       .  A
C851       Br866   1.929       .  S
C852        C855   1.489       .  S
C852        C853   1.413       .  A
C853        C854   1.410   1_554  A
C853       Br861   1.930       .  S
C854       Br865   1.929       .  S
C855        C856   1.410       .  A
C855        C860   1.411       .  A
C856        C857   1.411       .  A
C856       Br867   1.927       .  S
C857        C858   1.408       .  A
C857       Br863   1.926       .  S
C858        C859   1.409       .  A
C859        C860   1.407       .  A
C859       Br868   1.933       .  S
C860       Br864   1.931       .  S
C869        C870   1.426       .  A
C869        C874   1.419       .  A
C870        C871   1.408       .  A
C870       Br882   1.936       .  S
C871        C872   1.403       .  A
C871       Br886   1.933       .  S
C872        C875   1.487       .  S
C872        C873   1.408       .  A
C873        C874   1.411       .  A
C873       Br881   1.933       .  S
C874       Br885   1.927       .  S
C875        C876   1.413       .  A
C875        C880   1.408       .  A
C876        C877   1.412       .  A
C876       Br887   1.927       .  S
C877        C878   1.407       .  A
C877       Br883   1.927       .  S
C878        C879   1.411       .  A
C879        C880   1.403       .  A
C879       Br888   1.932       .  S
C880       Br884   1.932       .  S
C889        C890   1.410       .  A
C889        C894   1.413       .  A
C890        C891   1.415       .  A
C890       Br902   1.926       .  S
C891        C892   1.411       .  A
C891       Br906   1.925   1_545  S
C892        C895   1.495   1_545  S
C892        C893   1.410       .  A
C893        C894   1.408       .  A
C893       Br901   1.932       .  S
C894       Br905   1.931       .  S
C895        C896   1.410       .  A
C895        C900   1.413       .  A
C896        C897   1.411       .  A
C896       Br907   1.926       .  S
C897        C898   1.409       .  A
C897       Br903   1.928       .  S
C898        C899   1.409       .  A
C899        C900   1.412       .  A
C899       Br908   1.928       .  S
C900       Br904   1.929   1_565  S
C909        C910   1.409       .  A
C909        C914   1.411   1_545  A
C910        C911   1.403   1_455  A
C910       Br922   1.930       .  S
C911        C912   1.408       .  A
C911       Br926   1.929       .  S
C912        C915   1.468   1_546  S
C912        C913   1.404   1_645  A
C913        C914   1.398       .  A
C913       Br921   1.933       .  S
C914       Br925   1.930       .  S
C915        C916   1.407       .  A
C915        C920   1.406       .  A
C916        C917   1.400       .  A
C916       Br927   1.933   1_665  S
C917        C918   1.411       .  A
C917       Br923   1.934   1_655  S
C918        C919   1.412       .  A
C919        C920   1.402       .  A
C919       Br928   1.934       .  S
C920       Br924   1.930   1_554  S
C929        C930   1.413       .  A
C929        C934   1.410       .  A
C930        C931   1.408       .  A
C930       Br942   1.931       .  S
C931        C932   1.408       .  A
C931       Br946   1.930       .  S
C932        C935   1.490       .  S
C932        C933   1.412       .  A
C933        C934   1.412       .  A
C933       Br941   1.928       .  S
C934       Br945   1.928       .  S
C935        C936   1.409       .  A
C935        C940   1.411       .  A
C936        C937   1.407       .  A
C936       Br947   1.930       .  S
C937        C938   1.411       .  A
C937       Br943   1.928       .  S
C938        C939   1.410       .  A
C939        C940   1.413       .  A
C939       Br948   1.924       .  S
C940       Br944   1.928       .  S
C949        C950   1.407       .  A
C949        C954   1.412       .  A
C950        C951   1.411       .  A
C950       Br962   1.924       .  S
C951        C952   1.413       .  A
C951       Br966   1.930       .  S
C952        C955   1.493       .  S
C952        C953   1.410       .  A
C953        C954   1.410       .  A
C953       Br961   1.929       .  S
C954       Br965   1.932       .  S
C955        C956   1.410       .  A
C955        C960   1.409       .  A
C956        C957   1.411       .  A
C956       Br967   1.931       .  S
C957        C958   1.416       .  A
C957       Br963   1.930       .  S
C958        C959   1.415   1_565  A
C959        C960   1.410   1_545  A
C959       Br968   1.932       .  S
C960       Br964   1.929   1_565  S
C969        C970   1.412       .  A
C969        C974   1.413       .  A
C970        C971   1.413       .  A
C970       Br982   1.926       .  S
C971        C972   1.412       .  A
C971       Br986   1.931       .  S
C972        C975   1.506       .  S
C972        C973   1.413       .  A
C973        C974   1.419       .  A
C973       Br981   1.926       .  S
C974       Br985   1.927       .  S
C975        C976   1.414       .  A
C975        C980   1.413       .  A
C976        C977   1.415       .  A
C976       Br987   1.929       .  S
C977        C978   1.410       .  A
C977       Br983   1.928       .  S
C978        C979   1.412       .  A
C979        C980   1.416       .  A
C979       Br988   1.928       .  S
C980       Br984   1.927       .  S
C989        C990   1.408       .  A
C989        C994   1.410       .  A
C990        C991   1.408       .  A
C990      Br1002   1.927       .  S
C991        C992   1.411       .  A
C991      Br1006   1.929       .  S
C992        C995   1.487       .  S
C992        C993   1.409       .  A
C993        C994   1.408       .  A
C993      Br1001   1.928       .  S
C994      Br1005   1.930       .  S
C995        C996   1.410       .  A
C995       C1000   1.407       .  A
C996        C997   1.411       .  A
C996      Br1007   1.928       .  S
C997        C998   1.410       .  A
C997      Br1003   1.928       .  S
C998        C999   1.415       .  A
C999       C1000   1.407       .  A
C999      Br1008   1.932       .  S
C1000     Br1004   1.932       .  S
C1009      C1010   1.410       .  A
C1009      C1014   1.413       .  A
C1010      C1011   1.409   1_545  A
C1010     Br1022   1.928   1_545  S
C1011      C1012   1.411   1_565  A
C1011     Br1026   1.932       .  S
C1012      C1015   1.499   1_545  S
C1012      C1013   1.412       .  A
C1013      C1014   1.418       .  A
C1013     Br1021   1.927       .  S
C1014     Br1025   1.923       .  S
C1015      C1016   1.413       .  A
C1015      C1020   1.409   1_565  A
C1016      C1017   1.415       .  A
C1016     Br1027   1.928       .  S
C1017      C1018   1.411       .  A
C1017     Br1023   1.925       .  S
C1018      C1019   1.414       .  A
C1019      C1020   1.412   1_565  A
C1019     Br1028   1.930       .  S
C1020     Br1024   1.928       .  S
C1029      C1030   1.413       .  A
C1029      C1034   1.413       .  A
C1030      C1031   1.412       .  A
C1030     Br1042   1.926       .  S
C1031      C1032   1.410       .  A
C1031     Br1046   1.930       .  S
C1032      C1035   1.488       .  S
C1032      C1033   1.406       .  A
C1033      C1034   1.407       .  A
C1033     Br1041   1.930       .  S
C1034     Br1045   1.926       .  S
C1035      C1036   1.410       .  A
C1035      C1040   1.410       .  A
C1036      C1037   1.408       .  A
C1036     Br1047   1.930       .  S
C1037      C1038   1.409       .  A
C1037     Br1043   1.927       .  S
C1038      C1039   1.409       .  A
C1039      C1040   1.410       .  A
C1039     Br1048   1.925       .  S
C1040     Br1044   1.928       .  S
C1049      C1050   1.409       .  A
C1049      C1054   1.411       .  A
C1050      C1051   1.412       .  A
C1050     Br1062   1.923       .  S
C1051      C1052   1.412       .  A
C1051     Br1066   1.929       .  S
C1052      C1055   1.499       .  S
C1052      C1053   1.411       .  A
C1053      C1054   1.412       .  A
C1053     Br1061   1.927       .  S
C1054     Br1065   1.929       .  S
C1055      C1056   1.407       .  A
C1055      C1060   1.409       .  A
C1056      C1057   1.415       .  A
C1056     Br1067   1.930       .  S
C1057      C1058   1.423       .  A
C1057     Br1063   1.932       .  S
C1058      C1059   1.423       .  A
C1059      C1060   1.413       .  A
C1059     Br1068   1.932       .  S
C1060     Br1064   1.934       .  S
C1069      C1070   1.417       .  A
C1069      C1074   1.413       .  A
C1070      C1071   1.405       .  A
C1070     Br1082   1.933       .  S
C1071      C1072   1.406       .  A
C1071     Br1086   1.933       .  S
C1072      C1075   1.477       .  S
C1072      C1073   1.406       .  A
C1073      C1074   1.405       .  A
C1073     Br1081   1.930       .  S
C1074     Br1085   1.931   1_545  S
C1075      C1076   1.404       .  A
C1075      C1080   1.408       .  A
C1076      C1077   1.404       .  A
C1076     Br1087   1.932       .  S
C1077      C1078   1.419       .  A
C1077     Br1083   1.936       .  S
C1078      C1079   1.413       .  A
C1079      C1080   1.405       .  A
C1079     Br1088   1.932       .  S
C1080     Br1084   1.932       .  S
C1089      C1090   1.414       .  A
C1089      C1094   1.414       .  A
C1090      C1091   1.402       .  A
C1090     Br1102   1.935       .  S
C1091      C1092   1.406       .  A
C1091     Br1106   1.933       .  S
C1092      C1095   1.470   1_545  S
C1092      C1093   1.405       .  A
C1093      C1094   1.403       .  A
C1093     Br1101   1.931       .  S
C1094     Br1105   1.934       .  S
C1095      C1096   1.408       .  A
C1095      C1100   1.405   1_565  A
C1096      C1097   1.404       .  A
C1096     Br1107   1.929       .  S
C1097      C1098   1.407       .  A
C1097     Br1103   1.929       .  S
C1098      C1099   1.410   1_565  A
C1099      C1100   1.401       .  A
C1099     Br1108   1.930       .  S
C1100     Br1104   1.931       .  S
C1109      C1110   1.415       .  A
C1109      C1114   1.411       .  A
C1110      C1111   1.410       .  A
C1110     Br1122   1.932       .  S
C1111      C1112   1.409       .  A
C1111     Br1126   1.929       .  S
C1112      C1115   1.491       .  S
C1112      C1113   1.411       .  A
C1113      C1114   1.411       .  A
C1113     Br1121   1.930       .  S
C1114     Br1125   1.929       .  S
C1115      C1116   1.410       .  A
C1115      C1120   1.409       .  A
C1116      C1117   1.412       .  A
C1116     Br1127   1.928       .  S
C1117      C1118   1.411       .  A
C1117     Br1123   1.929       .  S
C1118      C1119   1.412       .  A
C1119      C1120   1.409       .  A
C1119     Br1128   1.931       .  S
C1120     Br1124   1.930       .  S
C1129      C1130   1.414       .  A
C1129      C1134   1.416       .  A
C1130      C1131   1.411       .  A
C1130     Br1142   1.930       .  S
C1131      C1132   1.410       .  A
C1131     Br1146   1.929       .  S
C1132      C1135   1.490       .  S
C1132      C1133   1.410       .  A
C1133      C1134   1.407       .  A
C1133     Br1141   1.934       .  S
C1134     Br1145   1.932       .  S
C1135      C1136   1.411       .  A
C1135      C1140   1.407       .  A
C1136      C1137   1.412       .  A
C1136     Br1147   1.931       .  S
C1137      C1138   1.414       .  A
C1137     Br1143   1.928       .  S
C1138      C1139   1.419       .  A
C1139      C1140   1.406       .  A
C1139     Br1148   1.935       .  S
C1140     Br1144   1.933       .  S
C1149      C1150   1.408       .  A
C1149      C1154   1.411       .  A
C1150      C1151   1.410       .  A
C1150     Br1162   1.929       .  S
C1151      C1152   1.413       .  A
C1151     Br1166   1.930   1_565  S
C1152      C1155   1.495   1_565  S
C1152      C1153   1.410       .  A
C1153      C1154   1.412       .  A
C1153     Br1161   1.928       .  S
C1154     Br1165   1.925       .  S
C1155      C1156   1.410   1_545  A
C1155      C1160   1.413       .  A
C1156      C1157   1.412   1_565  A
C1156     Br1167   1.927       .  S
C1157      C1158   1.410       .  A
C1157     Br1163   1.928       .  S
C1158      C1159   1.408       .  A
C1159      C1160   1.410       .  A
C1159     Br1168   1.928       .  S
C1160     Br1164   1.930       .  S
C1169      C1170   1.411       .  A
C1169      C1174   1.417       .  A
C1170      C1171   1.408       .  A
C1170     Br1182   1.931       .  S
C1171      C1172   1.410       .  A
C1171     Br1186   1.929       .  S
C1172      C1175   1.479       .  S
C1172      C1173   1.404       .  A
C1173      C1174   1.403       .  A
C1173     Br1181   1.932       .  S
C1174     Br1185   1.933       .  S
C1175      C1176   1.405       .  A
C1175      C1180   1.406       .  A
C1176      C1177   1.405       .  A
C1176     Br1187   1.932       .  S
C1177      C1178   1.415       .  A
C1177     Br1183   1.926   1_455  S
C1178      C1179   1.416       .  A
C1179      C1180   1.407       .  A
C1179     Br1188   1.932   1_545  S
C1180     Br1184   1.930   1_545  S
C1189      C1190   1.411       .  A
C1189      C1194   1.408       .  A
C1190      C1191   1.411   1_554  A
C1190     Br1202   1.930       .  S
C1191      C1192   1.411       .  A
C1191     Br1206   1.928       .  S
C1192      C1195   1.497       .  S
C1192      C1193   1.415       .  A
C1193      C1194   1.412   1_556  A
C1193     Br1201   1.929       .  S
C1194     Br1205   1.929       .  S
C1195      C1196   1.413       .  A
C1195      C1200   1.411       .  A
C1196      C1197   1.411       .  A
C1196     Br1207   1.932       .  S
C1197      C1198   1.411       .  A
C1197     Br1203   1.931       .  S
C1198      C1199   1.411       .  A
C1199      C1200   1.413       .  A
C1199     Br1208   1.928       .  S
C1200     Br1204   1.928       .  S
C1209      C1210   1.416       .  A
C1209      C1214   1.420       .  A
C1210      C1211   1.413       .  A
C1210     Br1222   1.930       .  S
C1211      C1212   1.410       .  A
C1211     Br1226   1.928       .  S
C1212      C1215   1.491   1_655  S
C1212      C1213   1.407       .  A
C1213      C1214   1.407       .  A
C1213     Br1221   1.933       .  S
C1214     Br1225   1.936       .  S
C1215      C1216   1.412       .  A
C1215      C1220   1.409       .  A
C1216      C1217   1.413       .  A
C1216     Br1227   1.927   1_455  S
C1217      C1218   1.410       .  A
C1217     Br1223   1.928       .  S
C1218      C1219   1.412       .  A
C1219      C1220   1.407       .  A
C1219     Br1228   1.931       .  S
C1220     Br1224   1.931       .  S
C1229      C1230   1.412       .  A
C1229      C1234   1.413       .  A
C1230      C1231   1.414       .  A
C1230     Br1242   1.928       .  S
C1231      C1232   1.411       .  A
C1231     Br1246   1.927       .  S
C1232      C1235   1.491       .  S
C1232      C1233   1.409       .  A
C1233      C1234   1.407       .  A
C1233     Br1241   1.933       .  S
C1234     Br1245   1.929       .  S
C1235      C1236   1.407       .  A
C1235      C1240   1.410       .  A
C1236      C1237   1.410       .  A
C1236     Br1247   1.931       .  S
C1237      C1238   1.419       .  A
C1237     Br1243   1.932       .  S
C1238      C1239   1.416       .  A
C1239      C1240   1.411       .  A
C1239     Br1248   1.931       .  S
C1240     Br1244   1.930       .  S
C1249      C1250   1.423       .  A
C1249      C1254   1.418       .  A
C1250      C1251   1.406       .  A
C1250     Br1262   1.936       .  S
C1251      C1252   1.404       .  A
C1251     Br1266   1.933       .  S
C1252      C1255   1.484       .  S
C1252      C1253   1.409       .  A
C1253      C1254   1.410       .  A
C1253     Br1261   1.933       .  S
C1254     Br1265   1.933       .  S
C1255      C1256   1.409       .  A
C1255      C1260   1.409       .  A
C1256      C1257   1.407       .  A
C1256     Br1267   1.930       .  S
C1257      C1258   1.413       .  A
C1257     Br1263   1.931       .  S
C1258      C1259   1.411       .  A
C1259      C1260   1.406       .  A
C1259     Br1268   1.931       .  S
C1260     Br1264   1.931       .  S
C1269      C1270   1.407       .  A
C1269      C1274   1.406       .  A
C1270      C1271   1.404       .  A
C1270     Br1282   1.929       .  S
C1271      C1272   1.408       .  A
C1271     Br1286   1.929       .  S
C1272      C1275   1.473       .  S
C1272      C1273   1.408       .  A
C1273      C1274   1.402       .  A
C1273     Br1281   1.930       .  S
C1274     Br1285   1.929       .  S
C1275      C1276   1.410       .  A
C1275      C1280   1.404       .  A
C1276      C1277   1.406       .  A
C1276     Br1287   1.928       .  S
C1277      C1278   1.406       .  A
C1277     Br1283   1.928       .  S
C1278      C1279   1.411       .  A
C1279      C1280   1.400       .  A
C1279     Br1288   1.927       .  S
C1280     Br1284   1.931       .  S
C1289      C1290   1.407       .  A
C1289      C1294   1.410       .  A
C1290      C1291   1.407       .  A
C1290     Br1302   1.928       .  S
C1291      C1292   1.412       .  A
C1291     Br1306   1.930       .  S
C1292      C1295   1.484       .  S
C1292      C1293   1.409       .  A
C1293      C1294   1.406       .  A
C1293     Br1301   1.930       .  S
C1294     Br1305   1.929       .  S
C1295      C1296   1.406       .  A
C1295      C1300   1.407       .  A
C1296      C1297   1.407       .  A
C1296     Br1307   1.932       .  S
C1297      C1298   1.416       .  A
C1297     Br1303   1.927       .  S
C1298      C1299   1.418       .  A
C1299      C1300   1.408       .  A
C1299     Br1308   1.931       .  S
C1300     Br1304   1.933       .  S
C1309      C1310   1.422       .  A
C1309      C1314   1.418       .  A
C1310      C1311   1.414       .  A
C1310     Br1322   1.931       .  S
C1311      C1312   1.408       .  A
C1311     Br1326   1.930       .  S
C1312      C1315   1.493       .  S
C1312      C1313   1.408       .  A
C1313      C1314   1.410       .  A
C1313     Br1321   1.932       .  S
C1314     Br1325   1.933       .  S
C1315      C1316   1.407       .  A
C1315      C1320   1.409       .  A
C1316      C1317   1.410       .  A
C1316     Br1327   1.929       .  S
C1317      C1318   1.418       .  A
C1317     Br1323   1.932       .  S
C1318      C1319   1.422       .  A
C1319      C1320   1.413       .  A
C1319     Br1328   1.933       .  S
C1320     Br1324   1.932       .  S
