geometry optimzed in LAMMPS
_audit_creation_date              2020-12-01 
_audit_creation_method            'lammps2cif' 
_symmetry_space_group_name_H-M    'P1' 
_symmetry_Int_Tables_number       1 
_symmetry_cell_setting            triclinic 
loop_ 
_symmetry_equiv_pos_as_xyz 
  x,y,z 
_cell_length_a                    41.90987005 
_cell_length_b                    41.581852050151944 
_cell_length_c                    65.0941472034654 
_cell_angle_alpha                 90.33803287500488 
_cell_angle_beta                  89.8543515794031 
_cell_angle_gamma                 89.99984510986746 
loop_ 
_atom_site_label 
_atom_site_type_symbol 
_atom_site_fract_x 
_atom_site_fract_y 
_atom_site_fract_z 
_atom_site_charge 
O1          O  0.35839485  0.12641769  0.73974243    -0.82000
C2          C  0.45290054  0.05446885  0.69909646     0.97400
O3          O  0.42303055  0.05083918  0.69623221    -0.71100
O4          O  0.38294535  0.04274437  0.72649815    -0.74700
Al5        Al  0.38569127  0.07435856  0.70605470     1.49000
C6          C  0.37659777  0.04473578  0.74527606     0.92600
O7          O  0.43896717  0.09771569  0.75741124    -0.80900
O8          O  0.42373856  0.16319192  0.71321463    -0.74500
Al9        Al  0.39867126  0.11137174  0.74703448     1.90100
O10         O  0.46595591  0.12564610  0.73478852    -0.73600
O11         O  0.42962175  0.12195757  0.68214145    -0.73400
O12         O  0.46379681  0.08103848  0.70578543    -0.79100
O13         O  0.38282957  0.09985923  0.68196674    -0.77300
O14         O  0.40885865  0.10192906  0.72088388    -1.13400
O15         O  0.34553609  0.09385337  0.71425507    -0.72600
C16         C  0.33822837  0.11580873  0.72715778     0.98100
C17         C  0.46381614  0.11271230  0.75220352     0.94500
Al18       Al  0.44283075  0.12118054  0.70986026     1.55600
O19         O  0.38134357  0.07058506  0.75482959    -0.77200
C20         C  0.40444744  0.11494301  0.67284788     0.98700
C21         C  0.41537109  0.17396489  0.73067749     0.93600
O22         O  0.41204717  0.15514487  0.74571052    -0.82500
O23         O  0.13642023  0.38029038  0.73856121    -0.82000
C24         C  0.04109739  0.44690277  0.69681249     0.97400
O25         O  0.07088649  0.45162860  0.69414493    -0.71100
O26         O  0.11016524  0.46172979  0.72420716    -0.74700
Al27       Al  0.10875251  0.42955680  0.70391156     1.49000
C28         C  0.11461000  0.46091989  0.74319878     0.92600
O29         O  0.05372982  0.40664297  0.75405560    -0.80900
O30         O  0.07415117  0.33888486  0.71143049    -0.74500
Al31       Al  0.09502602  0.39404088  0.74486974     1.90100
O32         O  0.02874538  0.37603395  0.73171885    -0.73600
O33         O  0.06842817  0.37838442  0.67933673    -0.73400
O34         O  0.03082176  0.41945090  0.70221333    -0.79100
O35         O  0.11337338  0.40380482  0.67991684    -0.77300
O36         O  0.08597741  0.40159544  0.71846945    -1.13400
O37         O  0.14912400  0.41142554  0.71243122    -0.72600
C38         C  0.15655041  0.39049139  0.72578049     0.98100
C39         C  0.02941720  0.39088658  0.74868168     0.94500
Al40       Al  0.05339364  0.38015798  0.70701112     1.55600
O41         O  0.11003080  0.43541247  0.75282965    -0.77200
C42         C  0.09379917  0.38644714  0.67051460     0.98700
C43         C  0.08215768  0.33014952  0.72934896     0.93600
O44         O  0.08343947  0.35050996  0.74376023    -0.82500
O45         O  0.10620510  0.13049135  0.76902799    -0.82000
C46         C  0.20406778  0.19858160  0.80903577     0.97400
O47         O  0.17448146  0.20280900  0.81235917    -0.71100
O48         O  0.14498995  0.21419721  0.77844547    -0.74700
Al49       Al  0.13712295  0.18440378  0.79921652     1.49000
C50         C  0.13345289  0.21176809  0.76077634     0.92600
O51         O  0.18818889  0.15315291  0.74998491    -0.80900
O52         O  0.16874085  0.09256082  0.79630183    -0.74500
Al53       Al  0.14721770  0.14265588  0.76068029     1.90100
O54         O  0.21438164  0.12619187  0.77365767    -0.73600
O55         O  0.17318387  0.13635611  0.82618884    -0.73400
O56         O  0.21385012  0.17212270  0.80170550    -0.79100
O57         O  0.12654631  0.15836449  0.82158741    -0.77300
O58         O  0.15813028  0.15359879  0.78620085    -1.13400
O59         O  0.09546479  0.17237455  0.78855640    -0.72600
C60         C  0.08638845  0.14757273  0.77872829     0.98100
C61         C  0.21320525  0.13921574  0.75609190     0.94500
Al62       Al  0.19002177  0.13334876  0.79855613     1.55600
O63         O  0.13177053  0.18453610  0.75216948    -0.77200
C64         C  0.14572809  0.14364484  0.83285349     0.98700
C65         C  0.16074285  0.08081767  0.77912388     0.93600
O66         O  0.15838368  0.09844593  0.76342899    -0.82500
O67         O  0.38568332  0.37662330  0.76603553    -0.82000
C68         C  0.29256490  0.30694092  0.80847613     0.97400
O69         O  0.32247511  0.30237293  0.81064947    -0.71100
O70         O  0.35772395  0.29189018  0.77855026    -0.74700
Al71       Al  0.35977708  0.32375865  0.79905711     1.49000
C72         C  0.36599822  0.29418755  0.76013353     0.92600
O73         O  0.30370272  0.34822476  0.75087511    -0.80900
O74         O  0.32570286  0.41480872  0.79453805    -0.74500
Al75       Al  0.34507132  0.36157503  0.75961713     1.90100
O76         O  0.27933022  0.37854374  0.77397161    -0.73600
O77         O  0.32080316  0.37195047  0.82634192    -0.73400
O78         O  0.28216608  0.33401810  0.80263964    -0.79100
O79         O  0.36715456  0.34977744  0.82213698    -0.77300
O80         O  0.33662667  0.35243823  0.78579941    -1.13400
O81         O  0.40000203  0.34092831  0.78911735    -0.72600
C82         C  0.40660409  0.36438536  0.77735547     0.98100
C83         C  0.27947527  0.36395357  0.75681198     0.94500
Al84       Al  0.30470609  0.37318583  0.79843908     1.55600
O85         O  0.36252192  0.32050857  0.75097854    -0.77200
C86         C  0.34737838  0.36359025  0.83353288     0.98700
C87         C  0.33209554  0.42473153  0.77651851     0.93600
O88         O  0.33204294  0.40509569  0.76160720    -0.82500
O89         O  0.39977105  0.08867788  0.01098968    -0.82000
C90         C  0.30200415  0.04676530  0.05945978     0.97400
O91         O  0.32794046  0.03622545  0.05209157    -0.71100
O92         O  0.37050605  0.03348064  0.02268079    -0.74700
Al93       Al  0.36685443  0.05848745  0.04747795     1.49000
C94         C  0.35663939  0.03465377  0.00543016     0.92600
O95         O  0.31413453  0.11811688  0.00273331    -0.80900
O96         O  0.33202595  0.15521931  0.03950479    -0.74500
Al97       Al  0.35588360  0.10147005  0.00986557     1.90100
O98         O  0.28655286  0.10943703  0.03055356    -0.73600
O99         O  0.34621918  0.12275839  0.07205581    -0.73400
O100        O  0.29853358  0.07670069  0.06291821    -0.79100
O101        O  0.36729048  0.07520525  0.07506846    -0.77300
O102        O  0.34678645  0.09133378  0.03584264    -1.13400
O103        O  0.40809325  0.07817320  0.04357292    -0.72600
C104        C  0.41864141  0.08552887  0.02598168     0.98100
C105        C  0.28790406  0.11864864  0.01233026     0.94500
Al106      Al  0.31835190  0.11406031  0.05012132     1.55600
O107        O  0.34335866  0.06026200  0.99946832    -0.77200
C108        C  0.36129523  0.10266441  0.08245229     0.98700
C109        C  0.35535083  0.16315964  0.02816300     0.93600
O110        O  0.37004798  0.14254147  0.01753471    -0.82500
O111        O  0.10236067  0.40701583  0.01198089    -0.82000
C112        C  0.20184868  0.44788570  0.05837625     0.97400
O113        O  0.17246990  0.45646216  0.05932875    -0.71100
O114        O  0.12713298  0.46774435  0.03109145    -0.74700
Al115      Al  0.13261333  0.43583941  0.05148781     1.49000
C116        C  0.13492383  0.47136538  0.01261144     0.92600
O117        O  0.18989940  0.40372343  0.99938089    -0.80900
O118        O  0.15919744  0.34505919  0.04046275    -0.74500
Al119      Al  0.14686754  0.40526536  0.00864624     1.90100
O120        O  0.20950622  0.37447608  0.02351553    -0.73600
O121        O  0.16941481  0.37950852  0.07347061    -0.73400
O122        O  0.20979308  0.41921007  0.05335626    -0.79100
O123        O  0.13000835  0.41204692  0.07667785    -0.77300
O124        O  0.15440099  0.40790506  0.03567625    -1.13400
O125        O  0.09131084  0.41755996  0.04438659    -0.72600
C126        C  0.08238010  0.40997818  0.02634677     0.98100
C127        C  0.21121875  0.38546766  0.00579558     0.94500
Al128      Al  0.18399541  0.38237919  0.04666268     1.55600
O129        O  0.14975831  0.44958101  0.00332969    -0.77200
C130        C  0.14753591  0.39082550  0.08415810     0.98700
C131        C  0.14462654  0.33915584  0.02374668     0.93600
O132        O  0.14239489  0.35998327  0.00972231    -0.82500
O133        O  0.35113534  0.36246401  0.98602301    -0.82000
C134        C  0.44888961  0.29858776  0.94338114     0.97400
O135        O  0.41943268  0.29127754  0.94228316    -0.71100
O136        O  0.38642288  0.28123801  0.97559019    -0.74700
Al137      Al  0.38098690  0.31032999  0.95370583     1.49000
C138        C  0.38372434  0.28536870  0.99460808     0.92600
O139        O  0.43887541  0.34933072  0.00039349    -0.80900
O140        O  0.40590332  0.40418837  0.95392955    -0.74500
Al141      Al  0.39472265  0.35451238  0.99171353     1.90100
O142        O  0.45670131  0.37584059  0.97386324    -0.73600
O143        O  0.41366407  0.35991340  0.92440210    -0.73400
O144        O  0.45729413  0.32725001  0.94768759    -0.79100
O145        O  0.37017671  0.33312985  0.92937649    -0.77300
O146        O  0.40225431  0.34266390  0.96556903    -1.13400
O147        O  0.33989501  0.32424800  0.96355961    -0.72600
C148        C  0.33134088  0.34750376  0.97495639     0.98100
C149        C  0.46057629  0.36607540  0.99199901     0.94500
Al150      Al  0.43099987  0.36482578  0.95116574     1.55600
O151        O  0.38519475  0.31301717  0.00235838    -0.77200
C152        C  0.38734444  0.34999695  0.91790491     0.98700
C153        C  0.39705168  0.41513201  0.97131375     0.93600
O154        O  0.40142468  0.39881754  0.98731045    -0.82500
O155        O  0.14440474  0.14046179  0.98976253    -0.82000
C156        C  0.05072119  0.20053687  0.94288122     0.97400
O157        O  0.08044598  0.20684014  0.94137127    -0.71100
O158        O  0.11193647  0.21757108  0.97502634    -0.74700
Al159      Al  0.11813362  0.18723110  0.95399020     1.49000
C160        C  0.11010432  0.21552180  0.99419874     0.92600
O161        O  0.05622808  0.15032784  0.99995254    -0.80900
O162        O  0.08910903  0.09417808  0.95489298    -0.74500
Al163      Al  0.10057413  0.14645988  0.99269514     1.90100
O164        O  0.03913701  0.12350402  0.97345426    -0.73600
O165        O  0.08481548  0.13857680  0.92485298    -0.73400
O166        O  0.04164989  0.17244358  0.94778292    -0.79100
O167        O  0.12974797  0.16254424  0.93044205    -0.77300
O168        O  0.09529471  0.15625965  0.96610679    -1.13400
O169        O  0.15872761  0.17338336  0.96510626    -0.72600
C170        C  0.16572571  0.15374844  0.97918928     0.98100
C171        C  0.03558089  0.13229566  0.99180869     0.94500
Al172      Al  0.06635783  0.13437674  0.95144119     1.55600
O173        O  0.10658013  0.18887438  0.00280496    -0.77200
C174        C  0.11176617  0.14721639  0.91860056     0.98700
C175        C  0.09557120  0.08355673  0.97270390     0.93600
O176        O  0.09672811  0.10198940  0.98815511    -0.82500
O177        O  0.36810193  0.13759561  0.51619105    -0.82000
C178        C  0.46605186  0.19630727  0.55964011     0.97400
O179        O  0.43658313  0.20296396  0.56231593    -0.71100
O180        O  0.39981553  0.21426599  0.53082037    -0.74700
Al181      Al  0.39760161  0.18364453  0.55179264     1.49000
C182        C  0.39947275  0.21280647  0.51157269     0.92600
O183        O  0.45550551  0.14914792  0.50384522    -0.80900
O184        O  0.42407739  0.09185138  0.54914953    -0.74500
Al185      Al  0.41191467  0.14405264  0.51193276     1.90100
O186        O  0.47392006  0.11812567  0.52788092    -0.73600
O187        O  0.43504576  0.13580499  0.57893783    -0.73400
O188        O  0.47478036  0.16826710  0.55393161    -0.79100
O189        O  0.38936858  0.15949640  0.57596841    -0.77300
O190        O  0.41923449  0.15317082  0.53835835    -1.13400
O191        O  0.35642543  0.16887402  0.54263059    -0.72600
C192        C  0.34812544  0.14967272  0.52844827     0.98100
C193        C  0.47645931  0.12999608  0.51023054     0.94500
Al194      Al  0.44929379  0.13060218  0.55140572     1.55600
O195        O  0.40471766  0.18670806  0.50242095    -0.77200
C196        C  0.40930417  0.14497435  0.58671921     0.98700
C197        C  0.41379462  0.08190312  0.53186268     0.93600
O198        O  0.41622715  0.09907151  0.51590061    -0.82500
O199        O  0.40610261  0.38499554  0.49040840    -0.82000
C200        C  0.31321332  0.44698145  0.44375976     0.97400
O201        O  0.34272580  0.45419018  0.44372889    -0.71100
O202        O  0.37271515  0.46567118  0.47771633    -0.74700
Al203      Al  0.37989702  0.43532036  0.45656443     1.49000
C204        C  0.37378004  0.46282771  0.49684928     0.92600
O205        O  0.31959020  0.40147970  0.50246771    -0.80900
O206        O  0.35106958  0.34105169  0.45858599    -0.74500
Al207      Al  0.36327959  0.39414297  0.49496558     1.90100
O208        O  0.30117384  0.37376450  0.47641288    -0.73600
O209        O  0.34866581  0.38366762  0.42783772    -0.73400
O210        O  0.30424924  0.41895715  0.44865238    -0.79100
O211        O  0.39170121  0.41140876  0.43291615    -0.77300
O212        O  0.35742787  0.40393656  0.46844697    -1.13400
O213        O  0.42047788  0.42106743  0.46762918    -0.72600
C214        C  0.42733275  0.39811487  0.47960856     0.98100
C215        C  0.29776098  0.38475366  0.49439526     0.94500
Al216      Al  0.32882333  0.38140837  0.45402233     1.55600
O217        O  0.37288848  0.43567227  0.50495243    -0.77200
C218        C  0.37481601  0.39430003  0.42139250     0.98700
C219        C  0.35619745  0.33078005  0.47660292     0.93600
O220        O  0.35618265  0.34980849  0.49169948    -0.82500
O221        O  0.12059999  0.11488661  0.48371801    -0.82000
C222        C  0.21977617  0.05082238  0.44210415     0.97400
O223        O  0.19040636  0.04386116  0.44039184    -0.71100
O224        O  0.16040756  0.03235815  0.47446600    -0.74700
Al225      Al  0.15231922  0.06153225  0.45284949     1.49000
C226        C  0.15280036  0.03621033  0.49298000     0.92600
O227        O  0.20569331  0.09726512  0.50047893    -0.80900
O228        O  0.17942651  0.15735676  0.45526089    -0.74500
Al229      Al  0.16291779  0.10509563  0.49086627     1.90100
O230        O  0.22741381  0.12457193  0.47523355    -0.73600
O231        O  0.18447675  0.11253215  0.42433085    -0.73400
O232        O  0.22804279  0.07890877  0.44748326    -0.79100
O233        O  0.14076725  0.08507845  0.42903125    -0.77300
O234        O  0.17243256  0.09420198  0.46495638    -1.13400
O235        O  0.11069226  0.07316718  0.46363933    -0.72600
C236        C  0.10120448  0.09708667  0.47421107     0.98100
C237        C  0.22865847  0.11365070  0.49332272     0.94500
Al238      Al  0.20226468  0.11645342  0.45155240     1.55600
O239        O  0.15035033  0.06389450  0.50049546    -0.77200
C240        C  0.15867034  0.10118783  0.41749729     0.98700
C241        C  0.17314311  0.16797443  0.47322075     0.93600
O242        O  0.17151500  0.14897742  0.48809190    -0.82500
O243        O  0.15626728  0.35817499  0.51253301    -0.82000
C244        C  0.05726767  0.30270163  0.55487102     0.97400
O245        O  0.08681593  0.29715594  0.55814013    -0.71100
O246        O  0.12911392  0.28634564  0.52859345    -0.74700
Al247      Al  0.12592261  0.31807099  0.54953484     1.49000
C248        C  0.12697002  0.28549810  0.50930996     0.92600
O249        O  0.06939317  0.34845865  0.49914607    -0.80900
O250        O  0.09684470  0.40803006  0.54413879    -0.74500
Al251      Al  0.11243694  0.35318877  0.50812668     1.90100
O252        O  0.04952731  0.37994248  0.52252813    -0.73600
O253        O  0.08335628  0.36583041  0.57433098    -0.73400
O254        O  0.04775968  0.33027180  0.54880226    -0.79100
O255        O  0.12967228  0.34331320  0.57428766    -0.77300
O256        O  0.10400792  0.34634320  0.53468990    -1.13400
O257        O  0.16678958  0.33521074  0.54222085    -0.72600
C258        C  0.17561362  0.35011463  0.52632111     0.98100
C259        C  0.04790173  0.36725672  0.50509677     0.94500
Al260      Al  0.07238300  0.36883846  0.54640544     1.55600
O261        O  0.11801875  0.30985144  0.49969238    -0.77200
C262        C  0.10784529  0.35770524  0.58373525     0.98700
C263        C  0.10917797  0.41701792  0.52718221     0.93600
O264        O  0.10954000  0.39866292  0.51150480    -0.82500
O265        O  0.36947616  0.37436235  0.26841410    -0.82000
C266        C  0.46715993  0.43803853  0.31077409     0.97400
O267        O  0.43770588  0.44305890  0.31414871    -0.71100
O268        O  0.40957685  0.45548245  0.28012011    -0.74700
Al269      Al  0.40031146  0.42572058  0.30067557     1.49000
C270        C  0.40013279  0.45371131  0.26191522     0.92600
O271        O  0.45583304  0.39068151  0.25253725    -0.80900
O272        O  0.42782070  0.33283072  0.29867728    -0.74500
Al273      Al  0.41231368  0.38379207  0.26195613     1.90100
O274        O  0.47588562  0.36323801  0.27806282    -0.73600
O275        O  0.43403831  0.37782697  0.32867222    -0.73400
O276        O  0.47654653  0.41076943  0.30445022    -0.79100
O277        O  0.38788891  0.40020091  0.32336961    -0.77300
O278        O  0.42113084  0.39426181  0.28801643    -1.13400
O279        O  0.35928238  0.41515616  0.28910023    -0.72600
C280        C  0.34995100  0.39219461  0.27778092     0.98100
C281        C  0.47815128  0.37364385  0.25995129     0.94500
Al282      Al  0.45111370  0.37284793  0.30145954     1.55600
O283        O  0.40007756  0.42674721  0.25280749    -0.77200
C284        C  0.40706207  0.38648129  0.33522174     0.98700
C285        C  0.42065973  0.32125683  0.28115800     0.93600
O286        O  0.42009753  0.33886589  0.26537824    -0.82500
O287        O  0.11882250  0.33625060  0.24089885    -0.82000
C288        C  0.21630721  0.29540470  0.19198722     0.97400
O289        O  0.18943765  0.28425418  0.19748834    -0.71100
O290        O  0.14602165  0.27893798  0.22707977    -0.74700
Al291      Al  0.15035811  0.30600440  0.20333377     1.49000
C292        C  0.15855196  0.27853934  0.24470817     0.92600
O293        O  0.20470216  0.35753432  0.25086106    -0.80900
O294        O  0.17919140  0.40371992  0.21141789    -0.74500
Al295      Al  0.16285979  0.34565957  0.24284566     1.90100
O296        O  0.22994886  0.36519725  0.22209685    -0.73600
O297        O  0.17256517  0.36898816  0.17875337    -0.73400
O298        O  0.22110752  0.32577783  0.19116753    -0.79100
O299        O  0.14921523  0.32280969  0.17593614    -0.77300
O300        O  0.17089374  0.33844013  0.21608932    -1.13400
O301        O  0.10909774  0.32578208  0.20832467    -0.72600
C302        C  0.09944618  0.33358480  0.22617225     0.98100
C303        C  0.22954093  0.36505005  0.24126681     0.94500
Al304      Al  0.19817544  0.36339712  0.20208902     1.55600
O305        O  0.17281266  0.30303320  0.25145782    -0.77200
C306        C  0.15684907  0.34939443  0.16837941     0.98700
C307        C  0.15927412  0.40979783  0.22564850     0.93600
O308        O  0.15131320  0.38833476  0.23821808    -0.82500
O309        O  0.15480049  0.10830981  0.26439581    -0.82000
C310        C  0.05418387  0.04909393  0.30723551     0.97400
O311        O  0.08345949  0.04122696  0.30895875    -0.71100
O312        O  0.11383541  0.02819194  0.27517834    -0.74700
Al313      Al  0.12250573  0.05761516  0.29655854     1.49000
C314        C  0.11923691  0.03110224  0.25632556     0.92600
O315        O  0.06795317  0.09491331  0.24999921    -0.80900
O316        O  0.10170089  0.15232421  0.29542911    -0.74500
Al317      Al  0.11152291  0.10061282  0.25849484     1.90100
O318        O  0.04937865  0.12527251  0.27501535    -0.73600
O319        O  0.09224571  0.10904404  0.32571255    -0.73400
O320        O  0.04681046  0.07761150  0.30207195    -0.79100
O321        O  0.13514564  0.08119927  0.32023201    -0.77300
O322        O  0.10294688  0.09034178  0.28456415    -1.13400
O323        O  0.16447134  0.06847138  0.28570563    -0.72600
C324        C  0.17408671  0.09142803  0.27447651     0.98100
C325        C  0.04672756  0.11371633  0.25705299     0.94500
Al326      Al  0.07475516  0.11411931  0.29850561     1.55600
O327        O  0.12127031  0.05847535  0.24841943    -0.77200
C328        C  0.11841014  0.09813051  0.33209302     0.98700
C329        C  0.11095372  0.16201118  0.27787056     0.93600
O330        O  0.10519053  0.14526806  0.26212326    -0.82500
O331        O  0.41001058  0.14540280  0.23925253    -0.82000
C332        C  0.31592856  0.19759592  0.19311328     0.97400
O333        O  0.34358351  0.20459697  0.19940528    -0.71100
O334        O  0.38956321  0.20246177  0.22657330    -0.74700
Al335      Al  0.37907295  0.17716571  0.20288846     1.49000
C336        C  0.37747996  0.20519632  0.24432747     0.92600
O337        O  0.32184548  0.13051089  0.25147500    -0.80900
O338        O  0.33382090  0.08594605  0.21466162    -0.74500
Al339      Al  0.36459343  0.14009745  0.24239712     1.90100
O340        O  0.29299459  0.13615865  0.22387684    -0.73600
O341        O  0.34868988  0.11554091  0.18048593    -0.73400
O342        O  0.30790367  0.16811458  0.19065725    -0.79100
O343        O  0.37437092  0.16001528  0.17553898    -0.77300
O344        O  0.35542908  0.14832944  0.21623235    -1.13400
O345        O  0.41696369  0.15153902  0.20591475    -0.72600
C346        C  0.42776733  0.14433391  0.22347511     0.98100
C347        C  0.29515962  0.12981907  0.24261812     0.94500
Al348      Al  0.32370431  0.12824504  0.20337393     1.55600
O349        O  0.35864203  0.18390388  0.25095145    -0.77200
C350        C  0.36438618  0.13340735  0.16883196     0.98700
C351        C  0.35492088  0.07701814  0.22741919     0.93600
O352        O  0.37194313  0.09699443  0.23690832    -0.82500
C353        C  0.00253371  0.10281830  0.23183739    -0.12500
C354        C  0.01947283  0.12456117  0.24431464     0.04500
C355        C  0.00865989  0.15674556  0.24578306    -0.07800
C356        C  0.48080566  0.15928079  0.23630486    -0.08500
C357        C  0.46167163  0.13632177  0.22658984    -0.03100
C358        C  0.47288826  0.10446959  0.22469346     0.03800
N359        N  0.45360792  0.08046251  0.21511589     0.66300
H360        H  0.01055316  0.07812810  0.23044206     0.15200
H361        H  0.47226603  0.18373245  0.23807674     0.14900
N362        N  0.02589572  0.18037435  0.25731793     0.74000
O363        O  0.44865485  0.08148643  0.19602138    -0.39500
O364        O  0.43994260  0.05942316  0.22590495    -0.39400
O365        O  0.04572986  0.19821105  0.24825286    -0.40100
O366        O  0.01669366  0.18773329  0.27521054    -0.40200
C367        C  0.25263982  0.13547510  0.26954247    -0.12500
C368        C  0.26647942  0.11792378  0.25339543     0.04500
C369        C  0.25202538  0.08886513  0.24693505    -0.07800
C370        C  0.22335397  0.07878261  0.25583216    -0.08500
C371        C  0.20832907  0.09733109  0.27097716    -0.03100
C372        C  0.22352707  0.12550256  0.27827103     0.03800
N373        N  0.20948160  0.14436195  0.29432542     0.66300
H374        H  0.26381746  0.15748449  0.27486832     0.15200
H375        H  0.21164165  0.05745473  0.24984395     0.14900
N376        N  0.26564524  0.06974563  0.23083835     0.74000
O377        O  0.21267060  0.13550635  0.31271316    -0.39500
O378        O  0.20058998  0.17273795  0.29068355    -0.39400
O379        O  0.27977512  0.04392934  0.23529867    -0.40100
O380        O  0.25696477  0.07436535  0.21254411    -0.40200
C381        C  0.27396050  0.27993882  0.19500643    -0.12500
C382        C  0.24317300  0.27221097  0.18812743     0.04500
C383        C  0.23797665  0.24085580  0.18020954    -0.07800
C384        C  0.26202653  0.21724584  0.18144704    -0.08500
C385        C  0.29228655  0.22432618  0.18955987    -0.03100
C386        C  0.29848953  0.25676794  0.19542804     0.03800
N387        N  0.32937201  0.26671548  0.20224663     0.66300
H388        H  0.27882967  0.30392108  0.20081290     0.15200
H389        H  0.25692596  0.19318823  0.17588137     0.14900
N390        N  0.20936145  0.23325232  0.16935885     0.74000
O391        O  0.34949032  0.27656754  0.18927354    -0.39500
O392        O  0.33420572  0.27172839  0.22111419    -0.39400
O393        O  0.20752932  0.24083108  0.15067578    -0.40100
O394        O  0.19123091  0.21152278  0.17607756    -0.40200
C395        C  0.15081465  0.19117320  0.25746939    -0.12500
C396        C  0.12944605  0.19194667  0.27415897     0.04500
C397        C  0.12374041  0.22157963  0.28406608    -0.07800
C398        C  0.13676377  0.25007164  0.27571382    -0.08500
C399        C  0.15475645  0.24921954  0.25735675    -0.03100
C400        C  0.16304958  0.21922484  0.24896832     0.02200
N401        N  0.18134099  0.21691438  0.23051363     0.66300
H402        H  0.15651441  0.16857973  0.24993621     0.15200
H403        H  0.13081206  0.27299002  0.28263969     0.14900
N404        N  0.10247537  0.22347094  0.30119377     0.74000
O405        O  0.21139458  0.21614679  0.23152136    -0.39500
O406        O  0.16768130  0.20784374  0.21425375    -0.39400
O407        O  0.11261640  0.21733037  0.31897692    -0.40100
O408        O  0.07286194  0.22608799  0.29818634    -0.40200
C409        C  0.11618894  0.44350857  0.24053972    -0.12500
C410        C  0.14441648  0.44210597  0.22872072     0.04500
C411        C  0.15892297  0.47138292  0.22286126    -0.07800
C412        C  0.15328076  0.99975719  0.23195211    -0.08500
C413        C  0.12539564  0.00190802  0.24399310    -0.03100
C414        C  0.10464182  0.47256560  0.24845412     0.03800
N415        N  0.07802809  0.97542865  0.25880331     0.66300
H416        H  0.10367600  0.42160556  0.24458248     0.15200
H417        H  0.16777988  0.02098781  0.22952789     0.14900
N418        N  0.18653646  0.47196547  0.20994870     0.74000
O419        O  0.04972982  0.47634124  0.25311249    -0.39500
O420        O  0.07783391  0.96430591  0.27679806    -0.39400
O421        O  0.18327034  0.46729897  0.19089939    -0.40100
O422        O  0.21164930  0.48530191  0.21640600    -0.40200
C423        C  0.47809025  0.99971973  0.31213056    -0.12500
C424        C  0.49012646  0.46539129  0.31271973     0.04500
C425        C  0.01669874  0.46716233  0.31970802    -0.07800
C426        C  0.03802613  0.49326009  0.31878354    -0.08500
C427        C  0.02868905  0.02376051  0.31056839    -0.03100
C428        C  0.50000725  0.02534527  0.31061893     0.03800
N429        N  0.48781063  0.05701189  0.30750217     0.66300
H430        H  0.45289349  0.00497051  0.31053055     0.15200
H431        H  0.06257198  0.48925892  0.32327995     0.14900
N432        N  0.02832459  0.43677458  0.32656650     0.74000
O433        O  0.48165811  0.06629938  0.28951936    -0.39500
O434        O  0.97123214  0.07829468  0.31010466    -0.39400
O435        O  0.04420955  0.41923828  0.31439985    -0.40100
O436        O  0.02855906  0.43073120  0.34553565    -0.40200
C437        C  0.02685879  0.34043401  0.25899985    -0.12500
C438        C  0.50664434  0.36250179  0.24806717     0.04500
C439        C  0.51853501  0.37674261  0.22994877    -0.07800
C440        C  0.04789759  0.36386365  0.22132433    -0.08500
C441        C  0.06552336  0.33967331  0.23126887    -0.03100
C442        C  0.05368572  0.32708903  0.24979495     0.03800
N443        N  0.07005484  0.30197081  0.26033867     0.66300
H444        H  0.01954612  0.33063910  0.27366013     0.15200
H445        H  0.05686460  0.37413507  0.20718523     0.14900
N446        N  0.50311975  0.40413122  0.22132868     0.74000
O447        O  0.08237648  0.30786703  0.27761857    -0.39500
O448        O  0.06580850  0.27314656  0.25483143    -0.39400
O449        O  0.50592285  0.43130431  0.22986645    -0.40100
O450        O  0.48332914  0.40040200  0.20693836    -0.40200
C451        C  0.30551094  0.40818056  0.25630462    -0.12500
C452        C  0.31624471  0.38900114  0.27238190     0.04500
C453        C  0.29696406  0.36361390  0.27945539    -0.07800
C454        C  0.26805643  0.35676285  0.26961336    -0.08500
C455        C  0.25853831  0.37444435  0.25246220    -0.03100
C456        C  0.27707090  0.40104491  0.24619182     0.03800
N457        N  0.26729287  0.42141669  0.22978404     0.66300
H458        H  0.32026669  0.42774406  0.25074011     0.15200
H459        H  0.25360519  0.33683950  0.27492938     0.14900
N460        N  0.30608154  0.34473989  0.29664775     0.74000
O461        O  0.26023529  0.45024954  0.23383830    -0.39500
O462        O  0.27461617  0.41383759  0.21157532    -0.39400
O463        O  0.29529168  0.35254182  0.31406689    -0.40100
O464        O  0.31469152  0.31606135  0.29361426    -0.40200
C465        C  0.38468949  0.99145917  0.23126195    -0.12500
C466        C  0.38649518  0.48325257  0.25245371     0.04500
C467        C  0.36649739  0.01096124  0.26452428    -0.07800
C468        C  0.35467957  0.03846007  0.25519518    -0.08500
C469        C  0.35844330  0.04354087  0.23415470    -0.03100
C470        C  0.37218027  0.01922833  0.22196178     0.03800
N471        N  0.37447277  0.02289297  0.20030782     0.66300
H472        H  0.39148157  0.46744960  0.22087143     0.15200
H473        H  0.34355449  0.05684035  0.26470752     0.14900
N474        N  0.37443690  0.50608463  0.28714364     0.74000
O475        O  0.39698423  0.03904476  0.19271541    -0.39500
O476        O  0.35218467  0.01285403  0.18897818    -0.39400
O477        O  0.39477613  0.52174088  0.29738310    -0.40100
O478        O  0.35003817  0.49517361  0.29610854    -0.40200
C479        C  0.42063525  0.24163975  0.25474217    -0.12500
C480        C  0.38890769  0.23192180  0.25750969     0.04500
C481        C  0.36979827  0.24847028  0.27199059    -0.07800
C482        C  0.38228285  0.27569255  0.28223368    -0.08500
C483        C  0.41314832  0.28696922  0.27784865    -0.03100
C484        C  0.43267636  0.26886099  0.26454003     0.03800
N485        N  0.46420110  0.27915222  0.25954230     0.66300
H486        H  0.43602321  0.22878785  0.24410882     0.15200
H487        H  0.36705751  0.28964913  0.29227376     0.14900
N488        N  0.33699463  0.24016289  0.27482745     0.74000
O489        O  0.48732659  0.26774222  0.26950466    -0.39500
O490        O  0.46929592  0.29148722  0.24217419    -0.39400
O491        O  0.32783488  0.22870443  0.29174479    -0.40100
O492        O  0.31652272  0.24945763  0.26197934    -0.40200
C493        C  0.16085970  0.09537618  0.35913894    -0.12500
C494        C  0.12939360  0.10374185  0.35376317     0.04500
C495        C  0.10872793  0.11468345  0.36959791    -0.07800
C496        C  0.11889904  0.11456941  0.39020595    -0.08500
C497        C  0.14990514  0.10499433  0.39550443    -0.03100
C498        C  0.17122650  0.09610912  0.37965270     0.03800
N499        N  0.20271477  0.08515092  0.38427637     0.66300
H500        H  0.17738977  0.08712521  0.34741563     0.15200
H501        H  0.10231840  0.12172617  0.40219481     0.14900
N502        N  0.07704937  0.12518621  0.36518390     0.74000
O503        O  0.20729388  0.05584404  0.38824179    -0.39500
O504        O  0.22630579  0.10311601  0.38066172    -0.39400
O505        O  0.05372727  0.10700684  0.36906751    -0.40100
O506        O  0.07209737  0.15439005  0.36109996    -0.40200
C507        C  0.14362186  0.22019082  0.46845414    -0.12500
C508        C  0.16706559  0.20216738  0.47864484     0.04500
C509        C  0.17822519  0.21350955  0.49787756    -0.07800
C510        C  0.16379065  0.23970648  0.50745029    -0.08500
C511        C  0.13908568  0.25669754  0.49808321    -0.03100
C512        C  0.12985152  0.24763331  0.47792835     0.03800
N513        N  0.10517870  0.26460413  0.46748372     0.66300
H514        H  0.13438785  0.21174985  0.45385678     0.15200
H515        H  0.17269378  0.24719033  0.52235827     0.14900
N516        N  0.20421244  0.19838049  0.50822505     0.74000
O517        O  0.07642398  0.25673990  0.47027294    -0.39500
O518        O  0.11228712  0.28349251  0.45308192    -0.39400
O519        O  0.23090128  0.21239075  0.50826348    -0.40100
O520        O  0.19830310  0.17816076  0.52211048    -0.40200
C521        C  0.12243458  0.50670238  0.52111388    -0.12500
C522        C  0.14430007  0.00810010  0.50539131     0.04500
C523        C  0.16488763  0.98166526  0.50652354    -0.07800
C524        C  0.15270780  0.44860957  0.51242087    -0.08500
C525        C  0.12486496  0.44854143  0.52447531    -0.03100
C526        C  0.11050303  0.47810054  0.52970976     0.03800
N527        N  0.08210342  0.47918983  0.54186078     0.66300
H528        H  0.10991742  0.52907666  0.52405400     0.15200
H529        H  0.16440034  0.42610492  0.50852715     0.14900
N530        N  0.19683724  0.98356635  0.49892563     0.74000
O531        O  0.08406151  0.48531153  0.56082229    -0.39500
O532        O  0.05530274  0.48058735  0.53311902    -0.39400
O533        O  0.21862633  0.99451610  0.51032209    -0.40100
O534        O  0.20402542  0.97017225  0.48210990    -0.40200
C535        C  0.36077914  0.38054844  0.38530198    -0.12500
C536        C  0.38451227  0.38821054  0.39973750     0.04500
C537        C  0.41625242  0.39214411  0.39276593    -0.07800
C538        C  0.42334408  0.38926011  0.37178062    -0.08500
C539        C  0.39923501  0.38347240  0.35731058    -0.03100
C540        C  0.36778482  0.37861493  0.36429621     0.03800
N541        N  0.34265583  0.37144432  0.35028154     0.66300
H542        H  0.33626109  0.37729922  0.39019949     0.15200
H543        H  0.44763552  0.39340366  0.36667910     0.14900
N544        N  0.44143672  0.40021517  0.40660117     0.74000
O545        O  0.33548908  0.34242667  0.34691823    -0.39500
O546        O  0.32334075  0.39333956  0.34533247    -0.39400
O547        O  0.46038634  0.37855946  0.41244224    -0.40100
O548        O  0.44890428  0.42936507  0.40913361    -0.40200
C549        C  0.23359986  0.49133154  0.43763655    -0.12500
C550        C  0.24432943  0.02480632  0.43914544     0.04500
C551        C  0.27755756  0.03095393  0.43871830    -0.07800
C552        C  0.29950767  0.00529261  0.43917119    -0.08500
C553        C  0.28885720  0.47251800  0.43934800    -0.03100
C554        C  0.25573426  0.46594821  0.43824486     0.03800
N555        N  0.24393500  0.43369729  0.43780492     0.66300
H556        H  0.20844550  0.48548833  0.43721658     0.15200
H557        H  0.32472177  0.01080078  0.43904930     0.14900
N558        N  0.28958843  0.06307643  0.43794780     0.74000
O559        O  0.23647238  0.42002969  0.45439702    -0.39500
O560        O  0.23502527  0.42157382  0.42095516    -0.39400
O561        O  0.29808846  0.07702960  0.45431029    -0.40100
O562        O  0.29707605  0.07506809  0.42084075    -0.40200
C563        C  0.25250059  0.34789842  0.49791074    -0.12500
C564        C  0.26858881  0.37498272  0.50562760     0.04500
C565        C  0.25580154  0.39120206  0.52292193    -0.07800
C566        C  0.22586226  0.38177833  0.53078656    -0.08500
C567        C  0.20938888  0.35571323  0.52200102    -0.03100
C568        C  0.22351115  0.33811165  0.50594541     0.03800
N569        N  0.20801588  0.31086049  0.49692511     0.66300
H570        H  0.26202874  0.33432041  0.48502282     0.15200
H571        H  0.21495054  0.39553366  0.54312598     0.14900
N572        N  0.27206406  0.41781690  0.53206648     0.74000
O573        O  0.18808920  0.31515583  0.48270476    -0.39500
O574        O  0.22036344  0.28342617  0.49907559    -0.39400
O575        O  0.26277953  0.44607639  0.52845397    -0.40100
O576        O  0.29134192  0.41292723  0.54657551    -0.40200
C577        C  0.46382697  0.35542687  0.49138363    -0.12500
C578        C  0.46030154  0.38550562  0.48182449     0.04500
C579        C  0.48804769  0.40289917  0.47649320    -0.07800
C580        C  0.51804838  0.39185825  0.48303696    -0.08500
C581        C  0.02094046  0.37615228  0.49206098    -0.03100
C582        C  0.99978665  0.35303518  0.48414158     0.03800
N583        N  0.00752430  0.31958005  0.48438245     0.66300
H584        H  0.44315146  0.34071600  0.49482139     0.15200
H585        H  0.53893433  0.40667058  0.48042432     0.14900
N586        N  0.48615327  0.43265021  0.46572840     0.74000
O587        O  0.00080785  0.30297247  0.49996598    -0.39500
O588        O  0.01571285  0.30569873  0.46790642    -0.39400
O589        O  0.48729272  0.45878669  0.47564360    -0.40100
O590        O  0.49043738  0.43284023  0.44654004    -0.40200
C591        C  0.00121778  0.28203489  0.55284945    -0.12500
C592        C  0.03345783  0.27609316  0.55739734     0.04500
C593        C  0.04231400  0.24428444  0.56275503    -0.07800
C594        C  0.01947479  0.21954908  0.56279233    -0.08500
C595        C  0.49095362  0.22186604  0.56232758    -0.03100
C596        C  0.48365331  0.25451238  0.56668157     0.03800
N597        N  0.45159437  0.26477492  0.57034222     0.66300
H598        H  0.99360702  0.30595123  0.54851514     0.15200
H599        H  0.52955556  0.18903078  0.55536418     0.14900
N600        N  0.07452098  0.23623743  0.56769041     0.74000
O601        O  0.44211633  0.26918011  0.58855225    -0.39500
O602        O  0.43526518  0.27558829  0.55565640    -0.39400
O603        O  0.08262005  0.23394484  0.58628002    -0.40100
O604        O  0.09265436  0.22513500  0.55386145    -0.40200
C605        C  0.04893389  0.07914058  0.48691688    -0.12500
C606        C  0.06697236  0.10311784  0.47744191     0.04500
C607        C  0.05437115  0.13446042  0.47593119    -0.07800
C608        C  0.02494136  0.14187103  0.48517588    -0.08500
C609        C  0.50373615  0.12023609  0.49726396    -0.03100
C610        C  0.51300992  0.08759444  0.49590755     0.03800
N611        N  0.49386011  0.06281040  0.50471201     0.66300
H612        H  0.05862291  0.05509481  0.48841205     0.15200
H613        H  0.01607097  0.16633583  0.48465277     0.14900
N614        N  0.07215920  0.15931514  0.46604292     0.74000
O615        O  0.50163486  0.05127326  0.52185886    -0.39500
O616        O  0.47399052  0.04798988  0.49362127    -0.39400
O617        O  0.08059529  0.15616089  0.44751017    -0.40100
O618        O  0.08101165  0.18364256  0.47618520    -0.40200
C619        C  0.27115840  0.15267665  0.50036506    -0.12500
C620        C  0.25652690  0.12358164  0.50583830     0.04500
C621        C  0.27007615  0.10523735  0.52177523    -0.07800
C622        C  0.29946323  0.11488505  0.53040285    -0.08500
C623        C  0.31436003  0.14349783  0.52405614    -0.03100
C624        C  0.29931252  0.16288058  0.50947018     0.03800
N625        N  0.31354419  0.19211206  0.50261180     0.66300
H626        H  0.26118424  0.16746599  0.48832593     0.15200
H627        H  0.31121167  0.09949630  0.54142768     0.14900
N628        N  0.25545311  0.07610272  0.52846233     0.74000
O629        O  0.33145212  0.19161622  0.48700205    -0.39500
O630        O  0.30191735  0.21850040  0.50865084    -0.39400
O631        O  0.26606034  0.04943350  0.52213248    -0.40100
O632        O  0.23606844  0.07682423  0.54332161    -0.40200
C633        C  0.40212269  0.49144606  0.52488929    -0.12500
C634        C  0.37830348  0.49156916  0.50973898     0.04500
C635        C  0.36474917  0.02173785  0.50419295    -0.07800
C636        C  0.37348700  0.05009078  0.51406592    -0.08500
C637        C  0.39792739  0.05058788  0.52879968    -0.03100
C638        C  0.41012798  0.02121839  0.53603610     0.03800
N639        N  0.43361944  0.02035174  0.55187647     0.66300
H640        H  0.41431957  0.46924127  0.52858778     0.15200
H641        H  0.36310839  0.07241085  0.50872433     0.14900
N642        N  0.33707340  0.52130674  0.49066143     0.74000
O643        O  0.46225282  0.01431824  0.54726456    -0.39500
O644        O  0.42468403  0.01756312  0.57030290    -0.39400
O645        O  0.30845980  0.52014700  0.49668828    -0.40100
O646        O  0.35337159  0.03302533  0.47019147    -0.40200
C647        C  0.36274148  0.25816651  0.50941154    -0.12500
C648        C  0.38804588  0.24136467  0.50032845     0.04500
C649        C  0.39929096  0.25117811  0.48086938    -0.07800
C650        C  0.38674087  0.27924102  0.47177434    -0.08500
C651        C  0.36229261  0.29673061  0.48159750    -0.03100
C652        C  0.34926677  0.28476466  0.50004356     0.03800
N653        N  0.32264934  0.30003525  0.50983961     0.66300
H654        H  0.35282077  0.25027525  0.52393779     0.15200
H655        H  0.39743657  0.28841308  0.45781780     0.14900
N656        N  0.42495324  0.23454588  0.47102672     0.74000
O657        O  0.29489498  0.29025726  0.50573479    -0.39500
O658        O  0.32707476  0.31671680  0.52584117    -0.39400
O659        O  0.41926652  0.21592420  0.45610907    -0.40100
O660        O  0.45336124  0.24248125  0.47493703    -0.40200
C661        C  0.49129522  0.21659121  0.94208172    -0.12500
C662        C  0.02574690  0.22639283  0.94000337     0.04500
C663        C  0.03306639  0.25942989  0.93727577    -0.07800
C664        C  0.00858919  0.28287838  0.93771359    -0.08500
C665        C  0.47392374  0.27286898  0.94054582    -0.03100
C666        C  0.46670800  0.23963077  0.94204655     0.03800
N667        N  0.43465678  0.22867027  0.94472038     0.66300
H668        H  0.48479901  0.19156310  0.94399032     0.15200
H669        H  0.01509631  0.30796251  0.93614552     0.14900
N670        N  0.06523780  0.26989095  0.93446967     0.74000
O671        O  0.41866566  0.22019526  0.92920895    -0.39500
O672        O  0.42499104  0.22111037  0.96242008    -0.39400
O673        O  0.07553697  0.27486690  0.91653886    -0.40100
O674        O  0.08075443  0.28048826  0.94964575    -0.40200
C675        C  0.13404079  0.38666155  0.14225200    -0.12500
C676        C  0.14929203  0.35747334  0.14682122     0.04500
C677        C  0.16094019  0.33834284  0.13058032    -0.07800
C678        C  0.15790254  0.34879794  0.11028842    -0.08500
C679        C  0.14400680  0.37869640  0.10558217    -0.03100
C680        C  0.13105070  0.39726278  0.12183157     0.03800
N681        N  0.11675906  0.42782143  0.11807987     0.66300
H682        H  0.12533743  0.40180816  0.15466228     0.15200
H683        H  0.16819040  0.33406492  0.09817979     0.14900
N684        N  0.17896870  0.30990998  0.13452191     0.74000
O685        O  0.08681671  0.42987638  0.11661992    -0.39500
O686        O  0.13310198  0.45307466  0.12032951    -0.39400
O687        O  0.16772804  0.28294144  0.12931783    -0.40100
O688        O  0.20824947  0.31231557  0.13877034    -0.40200
C689        C  0.02909357  0.38299855  0.03197424    -0.12500
C690        C  0.04850602  0.40427059  0.02072703     0.04500
C691        C  0.03722597  0.41567222  0.00167153    -0.07800
C692        C  0.00867415  0.40413673  0.99368852    -0.08500
C693        C  0.49081402  0.37657655  0.00233385    -0.03100
C694        C  0.00020930  0.37099138  0.02360955     0.03800
N695        N  0.47700715  0.35628986  0.03687384     0.66300
H696        H  0.03742332  0.37388853  0.04656767     0.15200
H697        H  0.00146166  0.41332348  0.97886691     0.14900
N698        N  0.05493238  0.43832886  0.98964989     0.74000
O699        O  0.48008668  0.32640982  0.03948594    -0.39500
O700        O  0.45986300  0.37237541  0.04913915    -0.39400
O701        O  0.04332329  0.46596193  0.98689323    -0.40100
O702        O  0.07544869  0.42798637  0.97701465    -0.40200
C703        C  0.25762750  0.39815533  0.98316818    -0.12500
C704        C  0.23810736  0.37538610  0.99274253     0.04500
C705        C  0.24637618  0.34258887  0.99167393    -0.07800
C706        C  0.27585138  0.33362700  0.98353301    -0.08500
C707        C  0.29739232  0.35663193  0.97649785    -0.03100
C708        C  0.28711554  0.38896637  0.97445131     0.03800
N709        N  0.30558062  0.41201317  0.96301649     0.66300
H710        H  0.25031006  0.42318522  0.98312501     0.15200
H711        H  0.28263920  0.30837042  0.98351619     0.14900
N712        N  0.22524784  0.31839049  0.99933941     0.74000
O713        O  0.32539693  0.40260158  0.94962727    -0.39500
O714        O  0.29851619  0.44152131  0.96378264    -0.39400
O715        O  0.19856526  0.31381758  0.99086986    -0.40100
O716        O  0.23284970  0.30212661  0.01488507    -0.40200
C717        C  0.09574428  0.27185107  0.00031759    -0.12500
C718        C  0.11348300  0.24513423  0.00632870     0.04500
C719        C  0.13841507  0.24905647  0.02063230    -0.07800
C720        C  0.14674840  0.27995142  0.02737186    -0.08500
C721        C  0.13100940  0.30705925  0.01972985    -0.03100
C722        C  0.10434379  0.30273165  0.00665947     0.03800
N723        N  0.08605522  0.32923041  0.99920764     0.66300
H724        H  0.07623147  0.26888585  0.98957645     0.15200
H725        H  0.16717274  0.28284118  0.03739960     0.14900
N726        N  0.15802566  0.22259809  0.02646467     0.74000
O727        O  0.09503166  0.34331037  0.98307183    -0.39500
O728        O  0.05720339  0.33146608  0.00455977    -0.39400
O729        O  0.18670151  0.22182705  0.02052435    -0.40100
O730        O  0.14939941  0.20502189  0.04120346    -0.40200
C731        C  0.08188621  0.03769753  0.99373927    -0.12500
C732        C  0.10023563  0.04936469  0.97735053     0.04500
C733        C  0.12845994  0.03316073  0.97185570    -0.07800
C734        C  0.13899830  0.00710625  0.98369832    -0.08500
C735        C  0.12379777  0.49986596  0.00117058    -0.03100
C736        C  0.09555364  0.51600821  0.00711587     0.03800
N737        N  0.07930798  0.50875809  0.02589788     0.66300
H738        H  0.06038496  0.05039164  0.99836266     0.15200
H739        H  0.16050074  0.49651514  0.97779688     0.14900
N740        N  0.14826563  0.04485886  0.95569988     0.74000
O741        O  0.08856317  0.52178227  0.04239848    -0.39500
O742        O  0.05242145  0.49514639  0.02540689    -0.39400
O743        O  0.17403527  0.05888605  0.96012119    -0.40100
O744        O  0.14357277  0.03529814  0.93752731    -0.40200
C745        C  0.36674540  0.08561024  0.11848851    -0.12500
C746        C  0.36888651  0.11032419  0.10411897     0.04500
C747        C  0.37345995  0.14215980  0.11118252    -0.07800
C748        C  0.37389850  0.14877343  0.13234566    -0.08500
C749        C  0.36901134  0.12428318  0.14683579    -0.03100
C750        C  0.36612274  0.09218095  0.13958449     0.03800
N751        N  0.36140094  0.06574093  0.15311807     0.66300
H752        H  0.36305099  0.06105158  0.11332969     0.15200
H753        H  0.37648595  0.17351984  0.13738469     0.14900
N754        N  0.37711004  0.16812628  0.09708626     0.74000
O755        O  0.33358178  0.06027233  0.15969269    -0.39500
O756        O  0.38115990  0.04285730  0.15241966    -0.39400
O757        O  0.35403516  0.18694957  0.09395254    -0.40100
O758        O  0.40465699  0.17578649  0.09097438    -0.40200
C759        C  0.28333187  0.48861272  0.06609587    -0.12500
C760        C  0.27531906  0.02343831  0.06316741     0.04500
C761        C  0.24287943  0.03169168  0.06034678    -0.07800
C762        C  0.21913886  0.00774753  0.06043685    -0.08500
C763        C  0.22739811  0.47264203  0.06200990    -0.03100
C764        C  0.25972657  0.46451273  0.06562470     0.03800
N765        N  0.26924073  0.43190895  0.06871093     0.66300
H766        H  0.30793014  0.48158557  0.06845294     0.15200
H767        H  0.19472886  0.01476448  0.05733185     0.14900
N768        N  0.23360319  0.06394354  0.05604003     0.74000
O769        O  0.28017064  0.41581673  0.05377764    -0.39500
O770        O  0.27333397  0.42185503  0.08676486    -0.39400
O771        O  0.22698822  0.07152073  0.03779676    -0.40100
O772        O  0.22389927  0.08155649  0.07061098    -0.40200
C773        C  0.20445337  0.15145559  0.00692251    -0.12500
C774        C  0.19889217  0.14821285  0.98586240     0.04500
C775        C  0.22400993  0.13759745  0.97305078    -0.07800
C776        C  0.25340859  0.12870157  0.98169326    -0.08500
C777        C  0.25836148  0.13107920  0.00291883    -0.03100
C778        C  0.23400565  0.14441906  0.01539978     0.03800
N779        N  0.23928053  0.15258725  0.03651151     0.66300
H780        H  0.18556135  0.15989633  0.01698152     0.15200
H781        H  0.27198691  0.11896854  0.97185593     0.14900
N782        N  0.21971217  0.13339633  0.95157169     0.74000
O783        O  0.25683773  0.17633476  0.04080365    -0.39500
O784        O  0.22079778  0.14169227  0.05012186    -0.39400
O785        O  0.23256717  0.15348365  0.93970633    -0.40100
O786        O  0.21421659  0.10540308  0.94495228    -0.40200
C787        C  0.46972333  0.11555202  0.03208160    -0.12500
C788        C  0.45298060  0.09084225  0.02191571     0.04500
C789        C  0.46667880  0.07664073  0.00436660    -0.07800
C790        C  0.49421280  0.08965020  0.99579208    -0.08500
C791        C  0.00812010  0.11846643  0.00334492    -0.03100
C792        C  0.99667569  0.13032650  0.02236418     0.03800
N793        N  0.01110157  0.15772265  0.03190114     0.66300
H794        H  0.45998602  0.12594281  0.04601174     0.15200
H795        H  0.50357606  0.07848872  0.98194752     0.14900
N796        N  0.45216753  0.04945676  0.99462917     0.74000
O797        O  0.00513610  0.18557373  0.02533291    -0.39500
O798        O  0.03267300  0.15388323  0.04514102    -0.39400
O799        O  0.43953541  0.05263587  0.97719121    -0.40100
O800        O  0.45810121  0.02161915  0.00122254    -0.40200
C801        C  0.37548141  0.00523143  0.97401908    -0.12500
C802        C  0.35771128  0.00550171  0.99241918     0.04500
C803        C  0.34590191  0.47514236  0.99869429    -0.07800
C804        C  0.35739206  0.44649264  0.99046390    -0.08500
C805        C  0.38008405  0.44606323  0.97451273    -0.03100
C806        C  0.38840721  0.47533387  0.96511966     0.03800
N807        N  0.41132153  0.47619674  0.94887513     0.66300
H808        H  0.38309068  0.02774977  0.96732917     0.15200
H809        H  0.34984661  0.42427023  0.99760524     0.14900
N810        N  0.32542072  0.47389942  0.01624465     0.74000
O811        O  0.39335109  0.97603395  0.92987394    -0.39500
O812        O  0.44037216  0.48076299  0.95301528    -0.39400
O813        O  0.29577965  0.47053314  0.01364054    -0.40100
O814        O  0.33732406  0.46757836  0.03353525    -0.40200
C815        C  0.40223114  0.23593313  0.01191206    -0.12500
C816        C  0.37741290  0.25734329  0.00768388     0.04500
C817        C  0.34595678  0.24927207  0.01352203    -0.07800
C818        C  0.33961061  0.21947352  0.02250368    -0.08500
C819        C  0.36403729  0.19719400  0.02539754    -0.03100
C820        C  0.39577910  0.20615300  0.02097739     0.03800
N821        N  0.42149974  0.18476445  0.02523482     0.66300
H822        H  0.42649683  0.24193469  0.00758731     0.15200
H823        H  0.31506367  0.21266974  0.02548616     0.14900
N824        N  0.31959878  0.26910220  0.00810191     0.74000
O825        O  0.43941619  0.17504968  0.01088452    -0.39500
O826        O  0.42549488  0.17458992  0.04326620    -0.39400
O827        O  0.29823162  0.25746395  0.99662554    -0.40100
O828        O  0.31342286  0.29364307  0.01888833    -0.40200
C829        C  0.38804872  0.37063232  0.86083264    -0.12500
C830        C  0.35569976  0.36734817  0.85562310     0.04500
C831        C  0.33343566  0.36141649  0.87146976    -0.07800
C832        C  0.34407983  0.35659174  0.89170288    -0.08500
C833        C  0.37672886  0.35791234  0.89665864    -0.03100
C834        C  0.39869467  0.36608934  0.88099387     0.03800
N835        N  0.43222958  0.36742150  0.88484652     0.66300
H836        H  0.40556905  0.37507707  0.84889845     0.15200
H837        H  0.32670859  0.35095404  0.90350529     0.14900
N838        N  0.30026884  0.35770854  0.86706719     0.74000
O839        O  0.44882935  0.34227892  0.88280943    -0.39500
O840        O  0.44591654  0.39437448  0.88621009    -0.39400
O841        O  0.28894795  0.32993095  0.86419340    -0.40100
O842        O  0.28157436  0.38108584  0.86998237    -0.40200
C843        C  0.16071872  0.13768330  0.86939235    -0.12500
C844        C  0.13672490  0.13788882  0.85452070     0.04500
C845        C  0.10450490  0.13712463  0.86099474    -0.07800
C846        C  0.09704658  0.13847694  0.88197447    -0.08500
C847        C  0.12111612  0.14108158  0.89686615    -0.03100
C848        C  0.15325036  0.13960026  0.89032364     0.03800
N849        N  0.17888202  0.14027627  0.90457351     0.66300
H850        H  0.18558832  0.13803591  0.86477712     0.15200
H851        H  0.07216048  0.13899977  0.88653341     0.14900
N852        N  0.07901472  0.13574171  0.84647230     0.74000
O853        O  0.19543832  0.11516305  0.90653830    -0.39500
O854        O  0.19097776  0.16712940  0.90918985    -0.39400
O855        O  0.06758127  0.10881294  0.84133232    -0.40100
O856        O  0.06420767  0.16112539  0.84189613    -0.40200
C857        C  0.21533540  0.25748921  0.81217749    -0.12500
C858        C  0.22695464  0.22580081  0.81247609     0.04500
C859        C  0.26036153  0.22120735  0.81357409    -0.07800
C860        C  0.28116268  0.24786246  0.81310429    -0.08500
C861        C  0.26955964  0.27961358  0.81170035    -0.03100
C862        C  0.23599266  0.28409815  0.81165963     0.03800
N863        N  0.22218793  0.31543593  0.81031948     0.66300
H864        H  0.18987734  0.26178107  0.81127281     0.15200
H865        H  0.30664675  0.24351079  0.81333726     0.14900
N866        N  0.27359458  0.18960404  0.81508372     0.74000
O867        O  0.21499519  0.32652628  0.79293230    -0.39500
O868        O  0.21087800  0.32854839  0.82627605    -0.39400
O869        O  0.29023330  0.17824703  0.80058108    -0.40100
O870        O  0.26829788  0.17280597  0.83081603    -0.40200
C871        C  0.12157081  0.39468480  0.63666008    -0.12500
C872        C  0.10015366  0.37661423  0.64873096     0.04500
C873        C  0.08393211  0.35062340  0.63929901    -0.07800
C874        C  0.08833778  0.34406111  0.61833506    -0.08500
C875        C  0.10872758  0.36279927  0.60623771    -0.03100
C876        C  0.12568944  0.38818885  0.61555237     0.03800
N877        N  0.14545844  0.40887590  0.60356504     0.66300
H878        H  0.13412234  0.41492441  0.64339364     0.15200
H879        H  0.07502164  0.32455615  0.61129130     0.14900
N880        N  0.06299765  0.33038958  0.65074734     0.74000
O881        O  0.13351516  0.43364196  0.59552719    -0.39500
O882        O  0.17539094  0.40602670  0.60446299    -0.39400
O883        O  0.03325564  0.33473500  0.64967720    -0.40100
O884        O  0.07348923  0.30423243  0.65771396    -0.40200
C885        C  0.46467149  0.35450542  0.77822661    -0.12500
C886        C  0.43967903  0.37610277  0.77501326     0.04500
C887        C  0.44654513  0.40639950  0.76612206    -0.07800
C888        C  0.97886614  0.41260412  0.76208930    -0.08500
C889        C  0.00162083  0.38815732  0.76218564    -0.03100
C890        C  0.99453957  0.35877677  0.77178949     0.03800
N891        N  0.01718520  0.33316854  0.77210001     0.66300
H892        H  0.46012612  0.33153456  0.78533445     0.15200
H893        H  0.98430412  0.43532178  0.75476837     0.14900
N894        N  0.42289630  0.43102239  0.76475131     0.74000
O895        O  0.03206346  0.32757285  0.78852002    -0.39500
O896        O  0.01580758  0.31163028  0.75839012    -0.39400
O897        O  0.42345958  0.45381593  0.77761462    -0.40100
O898        O  0.40797114  0.43466932  0.74812113    -0.40200
C899        C  0.21412579  0.40252836  0.72609004    -0.12500
C900        C  0.18989715  0.37968411  0.72815634     0.04500
C901        C  0.19754753  0.34905657  0.73622554    -0.07800
C902        C  0.22828730  0.34303182  0.74368194    -0.08500
C903        C  0.25133340  0.36726007  0.74362858    -0.03100
C904        C  0.24444661  0.39683024  0.73414139     0.03800
N905        N  0.26720425  0.42228454  0.73388909     0.66300
H906        H  0.20881503  0.42603896  0.71991554     0.15200
H907        H  0.23340182  0.32018889  0.75091033     0.14900
N908        N  0.17413810  0.32424529  0.73779763     0.74000
O909        O  0.28288202  0.42716226  0.71763185    -0.39500
O910        O  0.26480480  0.44456515  0.74705297    -0.39400
O911        O  0.17504970  0.30117643  0.72514249    -0.40100
O912        O  0.15944152  0.32065661  0.75456771    -0.40200
C913        C  0.11729840  0.24504439  0.73021283    -0.12500
C914        C  0.11863507  0.24056226  0.75162085     0.04500
C915        C  0.10388605  0.26344244  0.76461039    -0.07800
C916        C  0.08959598  0.29027237  0.75630537    -0.08500
C917        C  0.09056078  0.29672025  0.73518201    -0.03100
C918        C  0.10383266  0.27327666  0.72189467     0.03800
N919        N  0.10494800  0.27806196  0.70022320     0.66300
H920        H  0.12789465  0.22732847  0.72001027     0.15200
H921        H  0.07943991  0.30742476  0.76701026     0.14900
N922        N  0.10367947  0.26051079  0.78651054     0.74000
O923        O  0.12725377  0.29448783  0.69253642    -0.39500
O924        O  0.08843105  0.26015861  0.68871137    -0.39400
O925        O  0.12501698  0.27460155  0.79682916    -0.40100
O926        O  0.07848213  0.25162389  0.79545427    -0.40200
C927        C  0.11739295  0.00226178  0.77374692    -0.12500
C928        C  0.12729162  0.48991091  0.75365938     0.04500
C929        C  0.14871925  0.50987319  0.74303142    -0.07800
C930        C  0.17317844  0.03200068  0.76019133    -0.08500
C931        C  0.15556707  0.04621160  0.77600100    -0.03100
C932        C  0.12855782  0.03016057  0.78377400     0.03800
N933        N  0.11215318  0.04206480  0.80153152     0.66300
H934        H  0.09577821  0.99085297  0.77920868     0.15200
H935        H  0.19436020  0.04383624  0.75460427     0.14900
N936        N  0.16142912  0.50111912  0.72336976     0.74000
O937        O  0.08408270  0.05263099  0.79989779    -0.39500
O938        O  0.12281369  0.03541408  0.81911210    -0.39400
O939        O  0.15119003  0.51492989  0.70748624    -0.40100
O940        O  0.18739445  0.48582249  0.72246978    -0.40200
C941        C  0.41528817  0.15293500  0.64437022    -0.12500
C942        C  0.40123350  0.12412633  0.65097557     0.04500
C943        C  0.38721042  0.10344072  0.63623272    -0.07800
C944        C  0.38843788  0.11137251  0.61528031    -0.08500
C945        C  0.40353672  0.13961494  0.60876825    -0.03100
C946        C  0.41651398  0.16076130  0.62349649     0.03800
N947        N  0.43202842  0.18977876  0.61738242     0.66300
H948        H  0.42611825  0.16912312  0.65545068     0.15200
H949        H  0.37900259  0.09465926  0.60399081     0.14900
N950        N  0.37444846  0.07294902  0.64204102     0.74000
O951        O  0.41643170  0.21572039  0.61710146    -0.39500
O952        O  0.46206160  0.19058591  0.61608206    -0.39400
O953        O  0.34467422  0.06850929  0.64178815    -0.40100
O954        O  0.39291024  0.04919125  0.64398378    -0.40200
C955        C  0.98477376  0.46800059  0.69401282    -0.12500
C956        C  0.01782161  0.47432452  0.69484466     0.04500
C957        C  0.02757219  0.50691511  0.69599447    -0.07800
C958        C  0.50853315  0.03246031  0.69889655    -0.08500
C959        C  0.47584168  0.02716859  0.69538871    -0.03100
C960        C  0.97004377  0.99812569  0.69431601     0.03800
N961        N  0.43341738  0.98828321  0.68602381     0.66300
H962        H  0.97644044  0.44337679  0.69301042     0.15200
H963        H  0.51694265  0.05622459  0.70313551     0.14900
N964        N  0.06052227  0.51552942  0.69716804     0.74000
O965        O  0.92292486  0.98563111  0.67729793    -0.39500
O966        O  0.41609440  0.97709342  0.70016123    -0.39400
O967        O  0.07466571  0.52524123  0.68123391    -0.40100
O968        O  0.07293369  0.52061741  0.71452593    -0.40200
C969        C  0.33666801  0.46675609  0.75031816    -0.12500
C970        C  0.33964319  0.45881151  0.77115901     0.04500
C971        C  0.35324664  0.48191573  0.78455639    -0.07800
C972        C  0.36965583  0.00687992  0.77526851    -0.08500
C973        C  0.36111780  0.01688108  0.75539000    -0.03100
C974        C  0.34781105  0.49547420  0.74241705     0.03800
N975        N  0.34248841  0.50168568  0.72109294     0.66300
H976        H  0.32649425  0.44990449  0.73951810     0.15200
H977        H  0.38740202  0.02028580  0.78383955     0.14900
N978        N  0.35642526  0.47556609  0.80598552     0.74000
O979        O  0.35892931  0.48702920  0.70774491    -0.39500
O980        O  0.31712425  0.51558777  0.71570505    -0.39400
O981        O  0.38279173  0.46596257  0.81296498    -0.40100
O982        O  0.33512827  0.48527261  0.81826793    -0.40200
C983        C  0.37612499  0.25638456  0.72999720    -0.12500
C984        C  0.38240524  0.26626342  0.75034911     0.04500
C985        C  0.40485983  0.24864054  0.76190264    -0.07800
C986        C  0.41765430  0.22020740  0.75410890    -0.08500
C987        C  0.40895432  0.20840982  0.73476415    -0.03100
C988        C  0.38933423  0.22747710  0.72212915     0.03800
N989        N  0.38102189  0.21674400  0.70194097     0.66300
H990        H  0.35975309  0.27010388  0.72064322     0.15200
H991        H  0.43344427  0.20633641  0.76379699     0.14900
N992        N  0.41522112  0.25932369  0.78169936     0.74000
O993        O  0.35965502  0.19566589  0.69960785    -0.39500
O994        O  0.39886829  0.22379086  0.68699363    -0.39400
O995        O  0.40326483  0.24677912  0.79755458    -0.40100
O996        O  0.44143686  0.27403565  0.78314757    -0.40200
C997        C  0.04464620  0.10617003  0.77301028    -0.12500
C998        C  0.05231206  0.13842070  0.77756246     0.04500
C999        C  0.02751255  0.16133370  0.77854712    -0.07800
C1000       C  0.49657553  0.15102273  0.77110288    -0.08500
C1001       C  0.48995876  0.11875236  0.76653378    -0.03100
C1002       C  0.01341863  0.09704174  0.76826304     0.03800
N1003       N  0.00676950  0.06453306  0.76246967     0.66300
H1004       H  0.06327349  0.08823091  0.77198130     0.15200
H1005       H  0.47877882  0.16926250  0.76801140     0.14900
N1006       N  0.03393303  0.19460089  0.78216760     0.74000
O1007       O  0.01541447  0.05415899  0.74507992    -0.39500
O1008       O  0.48814222  0.04711642  0.77851697    -0.39400
O1009       O  0.04019715  0.21256357  0.76712346    -0.40100
O1010       O  0.02593935  0.20708931  0.79912580    -0.40200
C1011       C  0.26605868  0.16065157  0.74753575    -0.12500
C1012       C  0.24207111  0.13831498  0.74324159     0.04500
C1013       C  0.24880473  0.11205938  0.73009069    -0.07800
C1014       C  0.28010380  0.10693857  0.72320024    -0.08500
C1015       C  0.30492541  0.12734623  0.72932320    -0.03100
C1016       C  0.29725863  0.15570800  0.74052989     0.03800
N1017       N  0.32072892  0.17959400  0.74520929     0.66300
H1018       H  0.26096479  0.18113704  0.75740153     0.15200
H1019       H  0.28527712  0.08574735  0.71404099     0.14900
N1020       N  0.22465573  0.08943516  0.72442135     0.74000
O1021       O  0.32025763  0.20561189  0.73535439    -0.39500
O1022       O  0.33469233  0.17888038  0.76235401    -0.39400
O1023       O  0.20203876  0.09850540  0.71308978    -0.40100
O1024       O  0.23028707  0.05973923  0.72601972    -0.40200
O1025       O  0.35777265  0.62996873  0.73832758    -0.82000
C1026       C  0.45707105  0.55655634  0.70219687     0.97400
O1027       O  0.42768617  0.55383669  0.69732541    -0.71100
O1028       O  0.38870430  0.54444621  0.72791475    -0.74700
Al1029     Al  0.38907461  0.57591707  0.70742479     1.49000
C1030       C  0.37822358  0.54671084  0.74594004     0.92600
O1031       O  0.43583814  0.60114340  0.76032015    -0.80900
O1032       O  0.42647724  0.66402756  0.71400659    -0.74500
Al1033     Al  0.39705737  0.61463952  0.74785341     1.90100
O1034       O  0.46574282  0.62815000  0.73865773    -0.73600
O1035       O  0.43498787  0.62019569  0.68434042    -0.73400
O1036       O  0.46700939  0.58205512  0.71078938    -0.79100
O1037       O  0.38585612  0.60332837  0.68411557    -0.77300
O1038       O  0.41043244  0.60394868  0.72262636    -1.13400
O1039       O  0.34719023  0.59248278  0.71541651    -0.72600
C1040       C  0.33828764  0.61595233  0.72672176     0.98100
C1041       C  0.46158164  0.61527981  0.75597059     0.94500
Al1042     Al  0.44561959  0.62215385  0.71272553     1.55600
O1043       O  0.37857502  0.57350513  0.75511571    -0.77200
C1044       C  0.40940533  0.61504677  0.67486109     0.98700
C1045       C  0.41656065  0.67597729  0.73079221     0.93600
O1046       O  0.41112633  0.65829892  0.74618679    -0.82500
O1047       O  0.14234861  0.89671882  0.74055327    -0.82000
C1048       C  0.05011448  0.95415309  0.69726950     0.97400
O1049       O  0.07900412  0.96083647  0.70163349    -0.71100
O1050       O  0.12964587  0.95734826  0.72652566    -0.74700
Al1051     Al  0.11406075  0.93207206  0.70431856     1.49000
C1052       C  0.11972319  0.96272326  0.74439616     0.92600
O1053       O  0.05527963  0.90018543  0.75492834    -0.80900
O1054       O  0.07149531  0.84200433  0.71519258    -0.74500
Al1055     Al  0.09767716  0.89978687  0.74525186     1.90100
O1056       O  0.02801809  0.88794702  0.72745094    -0.73600
O1057       O  0.08072084  0.87338116  0.68114151    -0.73400
O1058       O  0.04081623  0.92481889  0.69556649    -0.79100
O1059       O  0.10741073  0.91702455  0.67694422    -0.77300
O1060       O  0.08946516  0.90502747  0.71854451    -1.13400
O1061       O  0.14987831  0.90341881  0.70710107    -0.72600
C1062       C  0.15909815  0.89287411  0.72447973     0.98100
C1063       C  0.02941211  0.89334920  0.74641012     0.94500
Al1064     Al  0.05802520  0.88407324  0.70585467     1.55600
O1065       O  0.09898075  0.94447864  0.75189973    -0.77200
C1066       C  0.09660921  0.89137930  0.66969117     0.98700
C1067       C  0.08711595  0.83450040  0.73110859     0.93600
O1068       O  0.09740529  0.85555558  0.74327373    -0.82500
O1069       O  0.10481754  0.63514497  0.76797133    -0.82000
C1070       C  0.20497721  0.69624028  0.80951903     0.97400
O1071       O  0.17565338  0.70188691  0.81326014    -0.71100
O1072       O  0.14451124  0.71650988  0.78058306    -0.74700
Al1073     Al  0.13694857  0.68529661  0.80045644     1.49000
C1074       C  0.13389346  0.71521532  0.76266952     0.92600
O1075       O  0.18903004  0.65561457  0.75099000    -0.80900
O1076       O  0.16353194  0.59173253  0.79475692    -0.74500
Al1077     Al  0.14667053  0.64621697  0.76065089     1.90100
O1078       O  0.21183718  0.62390994  0.77361751    -0.73600
O1079       O  0.17122444  0.63403953  0.82629569    -0.73400
O1080       O  0.21325576  0.66902746  0.80242014    -0.79100
O1081       O  0.12592393  0.65872939  0.82245550    -0.77300
O1082       O  0.15694222  0.65453499  0.78659966    -1.13400
O1083       O  0.09483103  0.67447623  0.78985987    -0.72600
C1084       C  0.08543526  0.65106710  0.77878966     0.98100
C1085       C  0.21249440  0.63850980  0.75658056     0.94500
Al1086     Al  0.18747059  0.63149605  0.79848124     1.55600
O1087       O  0.13304407  0.68874856  0.75321440    -0.77200
C1088       C  0.14460764  0.64299620  0.83343480     0.98700
C1089       C  0.15583587  0.58226620  0.77684052     0.93600
O1090       O  0.15556201  0.60181097  0.76205067    -0.82500
O1091       O  0.38508566  0.88083175  0.76508353    -0.82000
C1092       C  0.29443680  0.80421694  0.80607527     0.97400
O1093       O  0.32457877  0.80088460  0.80778149    -0.71100
O1094       O  0.35932195  0.79362470  0.77508753    -0.74700
Al1095     Al  0.36091338  0.82434615  0.79625013     1.49000
C1096       C  0.36872468  0.79720349  0.75697605     0.92600
O1097       O  0.30614945  0.84885350  0.74755374    -0.80900
O1098       O  0.32267956  0.91338768  0.79315320    -0.74500
Al1099     Al  0.34585772  0.86391421  0.75749450     1.90100
O1100       O  0.27876100  0.87499174  0.77141744    -0.73600
O1101       O  0.31998933  0.86986414  0.82406853    -0.73400
O1102       O  0.28282273  0.83065046  0.80003592    -0.79100
O1103       O  0.36739851  0.84989932  0.81980903    -0.77300
O1104       O  0.33681265  0.85258483  0.78338797    -1.13400
O1105       O  0.40065787  0.84329622  0.78645739    -0.72600
C1106       C  0.40659750  0.86799893  0.77557377     0.98100
C1107       C  0.28049615  0.86146095  0.75388223     0.94500
Al1108     Al  0.30377629  0.87089773  0.79615066     1.55600
O1109       O  0.36582051  0.82412374  0.74841952    -0.77200
C1110       C  0.34698056  0.86275287  0.83124839     0.98700
C1111       C  0.32902357  0.92494959  0.77560752     0.93600
O1112       O  0.33004201  0.90671224  0.76001979    -0.82500
O1113       O  0.39841453  0.58704807  0.00954898    -0.82000
C1114       C  0.30249441  0.54467346  0.05908402     0.97400
O1115       O  0.32804532  0.53425569  0.05112853    -0.71100
O1116       O  0.36991991  0.53197041  0.02132761    -0.74700
Al1117     Al  0.36673645  0.55663447  0.04629838     1.49000
C1118       C  0.35550351  0.53329298  0.00427055     0.92600
O1119       O  0.31275455  0.61675776  0.00263783    -0.80900
O1120       O  0.33151738  0.65367396  0.03872476    -0.74500
Al1121     Al  0.35463192  0.59994217  0.00899571     1.90100
O1122       O  0.28618948  0.60719484  0.03075720    -0.73600
O1123       O  0.34753172  0.62097806  0.07116677    -0.73400
O1124       O  0.29935890  0.57457787  0.06295721    -0.79100
O1125       O  0.36772743  0.57299276  0.07400096    -0.77300
O1126       O  0.34641940  0.58960244  0.03503974    -1.13400
O1127       O  0.40756178  0.57659214  0.04208006    -0.72600
C1128       C  0.41756954  0.58420005  0.02441335     0.98100
C1129       C  0.28693803  0.61712255  0.01268627     0.94500
Al1130     Al  0.31859691  0.61219727  0.04976980     1.55600
O1131       O  0.34166829  0.55881547  0.99869035    -0.77200
C1132       C  0.36237499  0.60055084  0.08146495     0.98700
C1133       C  0.35428516  0.66177069  0.02692189     0.93600
O1134       O  0.36915559  0.64105875  0.01647187    -0.82500
O1135       O  0.10230065  0.90660567  0.01491025    -0.82000
C1136       C  0.20114455  0.95016020  0.06020637     0.97400
O1137       O  0.17178839  0.95881393  0.06034035    -0.71100
O1138       O  0.12553465  0.96740282  0.03217745    -0.74700
Al1139     Al  0.13224279  0.93697562  0.05346241     1.49000
C1140       C  0.13378464  0.97015761  0.01370793     0.92600
O1141       O  0.18903112  0.90172851  0.00156515    -0.80900
O1142       O  0.16121258  0.84532387  0.04359295    -0.74500
Al1143     Al  0.14647086  0.90425319  0.01134445     1.90100
O1144       O  0.21108589  0.87650496  0.02668368    -0.73600
O1145       O  0.16867045  0.88044742  0.07637577    -0.73400
O1146       O  0.20921071  0.92109720  0.05643872    -0.79100
O1147       O  0.13094483  0.91516514  0.07944962    -0.77300
O1148       O  0.15437895  0.90822754  0.03826276    -1.13400
O1149       O  0.09077179  0.91760297  0.04710804    -0.72600
C1150       C  0.08198357  0.90999995  0.02900308     0.98100
C1151       C  0.21170837  0.88581025  0.00850532     0.94500
Al1152     Al  0.18450248  0.88358256  0.04968842     1.55600
O1153       O  0.14975729  0.94836128  0.00522668    -0.77200
C1154       C  0.14754815  0.89326463  0.08705577     0.98700
C1155       C  0.14538859  0.83882295  0.02749417     0.93600
O1156       O  0.14149407  0.85920669  0.01337678    -0.82500
O1157       O  0.35020003  0.86043910  0.98601092    -0.82000
C1158       C  0.44822585  0.80024507  0.94176381     0.97400
O1159       O  0.41879396  0.79242940  0.94077254    -0.71100
O1160       O  0.38317376  0.78141653  0.97301493    -0.74700
Al1161     Al  0.37968775  0.81158653  0.95163245     1.49000
C1162       C  0.38288179  0.78415818  0.99217065     0.92600
O1163       O  0.43881144  0.84924389  0.99872770    -0.80900
O1164       O  0.40421208  0.90553430  0.95358101    -0.74500
Al1165     Al  0.39432924  0.85350601  0.99063972     1.90100
O1166       O  0.45572708  0.87732729  0.97270106    -0.73600
O1167       O  0.41245000  0.86273830  0.92296084    -0.73400
O1168       O  0.45617540  0.82915485  0.94588427    -0.79100
O1169       O  0.36981846  0.83458947  0.92731027    -0.77300
O1170       O  0.40115145  0.84333144  0.96412553    -1.13400
O1171       O  0.33840029  0.82620895  0.96115488    -0.72600
C1172       C  0.33011762  0.84753072  0.97412012     0.98100
C1173       C  0.46007291  0.86677546  0.99059830     0.94500
Al1174     Al  0.42963019  0.86650801  0.94998553     1.55600
O1175       O  0.38673052  0.81109903  0.00059869    -0.77200
C1176       C  0.38660939  0.85216342  0.91610628     0.98700
C1177       C  0.39527595  0.91551683  0.97120200     0.93600
O1178       O  0.39934695  0.89821074  0.98684190    -0.82500
O1179       O  0.14311891  0.64438573  0.99236397    -0.82000
C1180       C  0.05205019  0.70410057  0.94410094     0.97400
O1181       O  0.08178266  0.71075908  0.94395326    -0.71100
O1182       O  0.11474952  0.71948128  0.97764850    -0.74700
Al1183     Al  0.11907478  0.68986339  0.95580701     1.49000
C1184       C  0.11005599  0.71710624  0.99661724     0.92600
O1185       O  0.05437601  0.65124905  0.00054812    -0.80900
O1186       O  0.08939232  0.59704479  0.95563439    -0.74500
Al1187     Al  0.09903951  0.64884533  0.99408010     1.90100
O1188       O  0.03869214  0.62599970  0.97320981    -0.73600
O1189       O  0.08591821  0.64153335  0.92585339    -0.73400
O1190       O  0.04256723  0.67570716  0.94800894    -0.79100
O1191       O  0.13007442  0.66670537  0.93134988    -0.77300
O1192       O  0.09524583  0.65897596  0.96736925    -1.13400
O1193       O  0.15891113  0.67396124  0.96636492    -0.72600
C1194       C  0.16498662  0.65575682  0.98133958     0.98100
C1195       C  0.03423816  0.63362938  0.99164223     0.94500
Al1196     Al  0.06687689  0.63736326  0.95201771     1.55600
O1197       O  0.10304634  0.69080001  0.00463529    -0.77200
C1198       C  0.11247099  0.65091190  0.91952855     0.98700
C1199       C  0.09590903  0.58636826  0.97342342     0.93600
O1200       O  0.09678537  0.60464909  0.98894216    -0.82500
O1201       O  0.37002866  0.64217518  0.51461596    -0.82000
C1202       C  0.46694920  0.69411545  0.56004741     0.97400
O1203       O  0.43742733  0.70129858  0.56226911    -0.71100
O1204       O  0.39681366  0.71163373  0.53201949    -0.74700
Al1205     Al  0.39819881  0.68084977  0.55290350     1.49000
C1206       C  0.40109838  0.71281689  0.51295434     0.92600
O1207       O  0.45835054  0.64761571  0.50435682    -0.80900
O1208       O  0.42535238  0.58997029  0.54804079    -0.74500
Al1209     Al  0.41437106  0.64501851  0.51181502     1.90100
O1210       O  0.47547499  0.61597942  0.52816915    -0.73600
O1211       O  0.43657759  0.63167352  0.57841857    -0.73400
O1212       O  0.47562707  0.66585403  0.55464293    -0.79100
O1213       O  0.39208977  0.65717191  0.57775514    -0.77300
O1214       O  0.42054248  0.65166754  0.53864926    -1.13400
O1215       O  0.35740972  0.66396909  0.54454600    -0.72600
C1216       C  0.34961463  0.65005761  0.52793524     0.98100
C1217       C  0.47892513  0.62835781  0.51085476     0.94500
Al1218     Al  0.45037204  0.62825858  0.55121879     1.55600
O1219       O  0.41150064  0.68873877  0.50339615    -0.77200
C1220       C  0.41211446  0.64114112  0.58750787     0.98700
C1221       C  0.41403295  0.58112796  0.53079690     0.93600
O1222       O  0.41479965  0.59943798  0.51521436    -0.82500
O1223       O  0.40597020  0.88621137  0.49230946    -0.82000
C1224       C  0.31346313  0.94713733  0.44504956     0.97400
O1225       O  0.34318823  0.95370277  0.44462808    -0.71100
O1226       O  0.37582813  0.96538022  0.47790435    -0.74700
Al1227     Al  0.38058239  0.93396056  0.45696148     1.49000
C1228       C  0.37513605  0.96354214  0.49713479     0.92600
O1229       O  0.31955778  0.90236552  0.50409299    -0.80900
O1230       O  0.35014744  0.84100547  0.46058255    -0.74500
Al1231     Al  0.36315440  0.89512829  0.49643471     1.90100
O1232       O  0.30079383  0.87413888  0.47850075    -0.73600
O1233       O  0.34673652  0.88258953  0.42907915    -0.73400
O1234       O  0.30398705  0.91939810  0.45034253    -0.79100
O1235       O  0.39081955  0.90887911  0.43321428    -0.77300
O1236       O  0.35737730  0.90386838  0.46968360    -1.13400
O1237       O  0.42099285  0.91850713  0.46751762    -0.72600
C1238       C  0.42735997  0.89713312  0.48070987     0.98100
C1239       C  0.29789231  0.88497377  0.49654573     0.94500
Al1240     Al  0.32804670  0.88140583  0.45577563     1.55600
O1241       O  0.37209084  0.93697853  0.50575198    -0.77200
C1242       C  0.37302421  0.89196847  0.42211854     0.98700
C1243       C  0.35625170  0.83128574  0.47863007     0.93600
O1244       O  0.35659938  0.85064374  0.49356127    -0.82500
O1245       O  0.12038800  0.61217005  0.48548834    -0.82000
C1246       C  0.21871877  0.54936102  0.44224320     0.97400
O1247       O  0.18933099  0.54214077  0.44110586    -0.71100
O1248       O  0.15933283  0.53075790  0.47525232    -0.74700
Al1249     Al  0.15139191  0.55995791  0.45366942     1.49000
C1250       C  0.15450323  0.53443609  0.49416372     0.92600
O1251       O  0.20670490  0.59776646  0.50074278    -0.80900
O1252       O  0.17836679  0.65553077  0.45505390    -0.74500
Al1253     Al  0.16332237  0.60376992  0.49164702     1.90100
O1254       O  0.22693425  0.62409141  0.47474671    -0.73600
O1255       O  0.18336860  0.61032516  0.42467327    -0.73400
O1256       O  0.22707594  0.57743185  0.44760796    -0.79100
O1257       O  0.13965772  0.58328314  0.42982708    -0.77300
O1258       O  0.17192276  0.59265579  0.46557978    -1.13400
O1259       O  0.10995881  0.57186227  0.46446033    -0.72600
C1260       C  0.10080547  0.59536759  0.47547319     0.98100
C1261       C  0.22912122  0.61418326  0.49298530     0.94500
Al1262     Al  0.20131325  0.61486944  0.45162012     1.55600
O1263       O  0.15307348  0.56214998  0.50182676    -0.77200
C1264       C  0.15748522  0.59905286  0.41806764     0.98700
C1265       C  0.17196855  0.66647626  0.47288923     0.93600
O1266       O  0.17013461  0.64781962  0.48797050    -0.82500
O1267       O  0.16121307  0.84579349  0.51332122    -0.82000
C1268       C  0.06187772  0.79829768  0.55600052     0.97400
O1269       O  0.09047379  0.79084554  0.55208618    -0.71100
O1270       O  0.13869974  0.78970966  0.52665870    -0.74700
Al1271     Al  0.12676427  0.81688254  0.54923155     1.49000
C1272       C  0.12922888  0.78587811  0.50834796     0.92600
O1273       O  0.07631806  0.86035773  0.49673862    -0.80900
O1274       O  0.08641589  0.90835308  0.53472234    -0.74500
Al1275     Al  0.11714906  0.85146721  0.50812773     1.90100
O1276       O  0.04457432  0.85908439  0.52324656    -0.73600
O1277       O  0.09327995  0.87907484  0.56977560    -0.73400
O1278       O  0.05343064  0.82778220  0.55695436    -0.79100
O1279       O  0.11972538  0.83554903  0.57600020    -0.77300
O1280       O  0.10508706  0.84518498  0.53422547    -1.13400
O1281       O  0.16586293  0.84118183  0.54688755    -0.72600
C1282       C  0.17809236  0.84635670  0.52936024     0.98100
C1283       C  0.04881490  0.86121212  0.50429583     0.94500
Al1284     Al  0.07231531  0.86666969  0.54521212     1.55600
O1285       O  0.11198716  0.80719207  0.50019736    -0.77200
C1286       C  0.10766684  0.86154528  0.58225121     0.98700
C1287       C  0.10985492  0.91571420  0.52320458     0.93600
O1288       O  0.12441735  0.89458937  0.51297717    -0.82500
O1289       O  0.37070216  0.88100447  0.26499504    -0.82000
C1290       C  0.46427380  0.94084228  0.31189708     0.97400
O1291       O  0.43451786  0.94683057  0.31377020    -0.71100
O1292       O  0.40059422  0.95930156  0.28181367    -0.74700
Al1293     Al  0.39671486  0.92729124  0.30149407     1.49000
C1294       C  0.39687803  0.95868979  0.26279492     0.92600
O1295       O  0.45760793  0.89789440  0.25362850    -0.80900
O1296       O  0.42651755  0.83472767  0.29596239    -0.74500
Al1297     Al  0.41356235  0.89048352  0.26109911     1.90100
O1298       O  0.47562947  0.86759355  0.27831776    -0.73600
O1299       O  0.43147483  0.87658908  0.32860500    -0.73400
O1300       O  0.47368002  0.91301829  0.30650063    -0.79100
O1301       O  0.38680657  0.90147272  0.32435465    -0.77300
O1302       O  0.41960753  0.89793840  0.28797088    -1.13400
O1303       O  0.35619948  0.91241126  0.29064331    -0.72600
C1304       C  0.34946886  0.89200690  0.27672505     0.98100
C1305       C  0.47875329  0.87911539  0.26057700     0.94500
Al1306     Al  0.44914674  0.87507814  0.30131302     1.55600
O1307       O  0.40265221  0.93332942  0.25285137    -0.77200
C1308       C  0.40510381  0.88587736  0.33564282     0.98700
C1309       C  0.42081670  0.82560745  0.27757199     0.93600
O1310       O  0.42043514  0.84574340  0.26314121    -0.82500
O1311       O  0.11476403  0.83507326  0.24272992    -0.82000
C1312       C  0.21261578  0.79084836  0.19460454     0.97400
O1313       O  0.18518140  0.78123402  0.19996542    -0.71100
O1314       O  0.14236550  0.77910288  0.22981482    -0.74700
Al1315     Al  0.14720161  0.80539441  0.20557426     1.49000
C1316       C  0.15498918  0.77931003  0.24753848     0.92600
O1317       O  0.19917912  0.86062089  0.25392815    -0.80900
O1318       O  0.18344477  0.90108720  0.21567523    -0.74500
Al1319     Al  0.15843135  0.84597561  0.24478073     1.90100
O1320       O  0.22898765  0.85485534  0.22676151    -0.73600
O1321       O  0.17421577  0.86803784  0.18200204    -0.73400
O1322       O  0.21884834  0.82084619  0.19393915    -0.79100
O1323       O  0.14759856  0.82351405  0.17831679    -0.77300
O1324       O  0.16852994  0.83677946  0.21856874    -1.13400
O1325       O  0.10643942  0.82681355  0.20993159    -0.72600
C1326       C  0.09601663  0.83389540  0.22767295     0.98100
C1327       C  0.22615261  0.86039857  0.24561570     0.94500
Al1328     Al  0.19873724  0.85918631  0.20566868     1.55600
O1329       O  0.16883867  0.80414135  0.25434104    -0.77200
C1330       C  0.15709715  0.84997340  0.17120925     0.98700
C1331       C  0.15983163  0.90834384  0.22714346     0.93600
O1332       O  0.14645065  0.88727769  0.23794913    -0.82500
O1333       O  0.15314911  0.60673501  0.26437263    -0.82000
C1334       C  0.05346741  0.54918024  0.30814258     0.97400
O1335       O  0.08274179  0.54164613  0.31016968    -0.71100
O1336       O  0.11170857  0.52765573  0.27600502    -0.74700
Al1337     Al  0.12129327  0.55733859  0.29720342     1.49000
C1338       C  0.11536247  0.53053259  0.25696110     0.92600
O1339       O  0.06546068  0.59673428  0.25112243    -0.80900
O1340       O  0.10091452  0.65157389  0.29701581    -0.74500
Al1341     Al  0.10944004  0.60052409  0.25923482     1.90100
O1342       O  0.04845403  0.62640548  0.27675577    -0.73600
O1343       O  0.09103052  0.60741791  0.32665743    -0.73400
O1344       O  0.04575235  0.57746019  0.30271585    -0.79100
O1345       O  0.13480381  0.58131812  0.32059201    -0.77300
O1346       O  0.10154148  0.59012361  0.28533678    -1.13400
O1347       O  0.16286609  0.56740061  0.28595215    -0.72600
C1348       C  0.17242986  0.59001841  0.27452514     0.98100
C1349       C  0.04502898  0.61593845  0.25864973     0.94500
Al1350     Al  0.07375269  0.61376693  0.29967591     1.55600
O1351       O  0.11689885  0.55795563  0.24897267    -0.77200
C1352       C  0.11753040  0.59711029  0.33277609     0.98700
C1353       C  0.11031777  0.66167812  0.27959012     0.93600
O1354       O  0.10511440  0.64531544  0.26355325    -0.82500
O1355       O  0.40735546  0.64204130  0.23903786    -0.82000
C1356       C  0.31239892  0.69207520  0.19384749     0.97400
O1357       O  0.34065851  0.69993228  0.19862577    -0.71100
O1358       O  0.38843069  0.70001496  0.22471656    -0.74700
Al1359     Al  0.37699956  0.67371324  0.20212992     1.49000
C1360       C  0.37786706  0.70481969  0.24257257     0.92600
O1361       O  0.31871410  0.63431461  0.25191362    -0.80900
O1362       O  0.33814894  0.58090398  0.21318950    -0.74500
Al1363     Al  0.36196243  0.63973060  0.24285660     1.90100
O1364       O  0.29294945  0.62527796  0.22334920    -0.73600
O1365       O  0.34845280  0.61228042  0.17938112    -0.73400
O1366       O  0.30479187  0.66230837  0.19169537    -0.79100
O1367       O  0.37291119  0.65708788  0.17478268    -0.77300
O1368       O  0.35386893  0.64501151  0.21607945    -1.13400
O1369       O  0.41503196  0.64876667  0.20560303    -0.72600
C1370       C  0.42535891  0.64149068  0.22331852     0.98100
C1371       C  0.29362383  0.62653163  0.24252060     0.94500
Al1372     Al  0.32387421  0.62248924  0.20293616     1.55600
O1373       O  0.35885145  0.68465674  0.25020594    -0.77200
C1374       C  0.36380705  0.63047130  0.16787909     0.98700
C1375       C  0.35531447  0.57404946  0.22860921     0.93600
O1376       O  0.36652907  0.59571166  0.24002559    -0.82500
C1377       C  0.00369420  0.60931518  0.23086048    -0.12500
C1378       C  0.01753954  0.62806160  0.24653649     0.04500
C1379       C  0.00365486  0.65826485  0.25141042    -0.07800
C1380       C  0.47701013  0.65775168  0.23722843    -0.08500
C1381       C  0.45922046  0.63443477  0.22681101    -0.03100
C1382       C  0.47137264  0.60298354  0.22485178     0.03800
N1383       N  0.45285790  0.57841093  0.21515413     0.66300
H1384       H  0.01408564  0.58631232  0.22671433     0.15200
H1385       H  0.46742876  0.68181186  0.23920951     0.14900
N1386       N  0.01785810  0.67972899  0.26599262     0.74000
O1387       O  0.44746981  0.57967948  0.19611359    -0.39500
O1388       O  0.43879865  0.55767371  0.22597364    -0.39400
O1389       O  0.03684679  0.70115289  0.25980859    -0.40100
O1390       O  0.00661203  0.68153082  0.28396667    -0.40200
C1391       C  0.25088730  0.63383456  0.26911000    -0.12500
C1392       C  0.26502788  0.61525401  0.25358323     0.04500
C1393       C  0.25087571  0.58559820  0.24788492    -0.07800
C1394       C  0.22193527  0.57620633  0.25663836    -0.08500
C1395       C  0.20661644  0.59577755  0.27108118    -0.03100
C1396       C  0.22169203  0.62432444  0.27788414     0.03800
N1397       N  0.20767770  0.64376500  0.29367818     0.66300
H1398       H  0.26195429  0.65617393  0.27394341     0.15200
H1399       H  0.21042166  0.55441766  0.25118621     0.14900
N1400       N  0.26536955  0.56492325  0.23290407     0.74000
O1401       O  0.20806089  0.63386530  0.31196279    -0.39500
O1402       O  0.20205184  0.67306394  0.29031300    -0.39400
O1403       O  0.28223205  0.54161722  0.23880527    -0.40100
O1404       O  0.25560507  0.56547593  0.21458635    -0.40200
C1405       C  0.26918770  0.77349637  0.19885287    -0.12500
C1406       C  0.23878025  0.76667669  0.19101325     0.04500
C1407       C  0.23353276  0.73569515  0.18241978    -0.07800
C1408       C  0.25773056  0.71198633  0.18309775    -0.08500
C1409       C  0.28783036  0.71844405  0.19173708    -0.03100
C1410       C  0.29342355  0.75012950  0.19932063     0.03800
N1411       N  0.32290212  0.75870870  0.20889058     0.66300
H1412       H  0.27382886  0.79684823  0.20571752     0.15200
H1413       H  0.25294471  0.68840537  0.17664663     0.14900
N1414       N  0.20468781  0.72851287  0.17165883     0.74000
O1415       O  0.34312118  0.77506079  0.19905956    -0.39500
O1416       O  0.32567260  0.75598872  0.22809706    -0.39400
O1417       O  0.20139400  0.73896254  0.15364733    -0.40100
O1418       O  0.18775010  0.70510886  0.17732603    -0.40200
C1419       C  0.15032273  0.69202619  0.26012947    -0.12500
C1420       C  0.12821839  0.69200062  0.27641684     0.04500
C1421       C  0.12105373  0.72130315  0.28633545    -0.07800
C1422       C  0.13315593  0.75029083  0.27819616    -0.08500
C1423       C  0.15196992  0.75009453  0.26020421    -0.03100
C1424       C  0.16204541  0.72055475  0.25202477     0.02200
N1425       N  0.18190234  0.71920391  0.23420660     0.66300
H1426       H  0.15712422  0.66966620  0.25267829     0.15200
H1427       H  0.12596070  0.77296350  0.28497936     0.14900
N1428       N  0.09932745  0.72224646  0.30325753     0.74000
O1429       O  0.21183541  0.71879130  0.23621829    -0.39500
O1430       O  0.16970921  0.71157553  0.21718560    -0.39400
O1431       O  0.10923281  0.71621277  0.32111169    -0.40100
O1432       O  0.06973356  0.72424136  0.29999876    -0.40200
C1433       C  0.11723862  0.94481485  0.23929668    -0.12500
C1434       C  0.14703317  0.94158657  0.22938308     0.04500
C1435       C  0.16434319  0.96977129  0.22466661    -0.07800
C1436       C  0.14719037  0.50063721  0.23085375    -0.08500
C1437       C  0.12108373  0.50131220  0.24443532    -0.03100
C1438       C  0.10675307  0.97429475  0.24693079     0.03800
N1439       N  0.07678026  0.47233675  0.26116745     0.66300
H1440       H  0.10261041  0.92388019  0.24239785     0.15200
H1441       H  0.15986530  0.52272026  0.22748513     0.14900
N1442       N  0.19384194  0.96833637  0.21364652     0.74000
O1443       O  0.05195826  0.98198306  0.25014077    -0.39500
O1444       O  0.07858073  0.46195247  0.27929962    -0.39400
O1445       O  0.19405956  0.97411786  0.19464219    -0.40100
O1446       O  0.21980054  0.96867438  0.22340537    -0.40200
C1447       C  0.47942495  0.49651768  0.30800695    -0.12500
C1448       C  0.48820668  0.96762809  0.31436207     0.04500
C1449       C  0.01534958  0.96731420  0.31856936    -0.07800
C1450       C  0.03754213  0.99280831  0.31728838    -0.08500
C1451       C  0.02854699  0.52362894  0.31143947    -0.03100
C1452       C  0.50054633  0.52267035  0.30664871     0.03800
N1453       N  0.48814424  0.55293238  0.30012247     0.66300
H1454       H  0.45458030  0.50036341  0.30422030     0.15200
H1455       H  0.06216906  0.98798408  0.32123705     0.14900
N1456       N  0.02622807  0.93666270  0.32544408     0.74000
O1457       O  0.48614546  0.55881532  0.28117042    -0.39500
O1458       O  0.96951143  0.57648942  0.30808663    -0.39400
O1459       O  0.04269789  0.91917309  0.31358079    -0.40100
O1460       O  0.02467688  0.92996618  0.34430031    -0.40200
C1461       C  0.02187248  0.83981052  0.25912540    -0.12500
C1462       C  0.50592125  0.86655664  0.24812914     0.04500
C1463       C  0.51995499  0.88243917  0.23127516    -0.07800
C1464       C  0.04592963  0.86665257  0.22316037    -0.08500
C1465       C  0.06201390  0.84059716  0.23225267    -0.03100
C1466       C  0.04874894  0.82650560  0.24991594     0.03800
N1467       N  0.06363268  0.79963086  0.25957488     0.66300
H1468       H  0.01334815  0.82880013  0.27314195     0.15200
H1469       H  0.05622424  0.87833461  0.20986934     0.14900
N1470       N  0.50794247  0.91275536  0.22457503     0.74000
O1471       O  0.07454060  0.80278088  0.27751883    -0.39500
O1472       O  0.05961927  0.77180263  0.25219952    -0.39400
O1473       O  0.51024838  0.93715565  0.23609222    -0.40100
O1474       O  0.49096405  0.91409893  0.20862585    -0.40200
C1475       C  0.29057483  0.90200066  0.27677063    -0.12500
C1476       C  0.31632702  0.88119296  0.27294253     0.04500
C1477       C  0.31038712  0.85139028  0.26299606    -0.07800
C1478       C  0.28017149  0.84448131  0.25534558    -0.08500
C1479       C  0.25513719  0.86623707  0.25773324    -0.03100
C1480       C  0.25992947  0.89461018  0.26935961     0.03800
N1481       N  0.23472396  0.91730230  0.27231221     0.66300
H1482       H  0.29454561  0.92481953  0.28447550     0.15200
H1483       H  0.27648957  0.82225759  0.24685916     0.14900
N1484       N  0.33470458  0.82762298  0.26049043     0.74000
O1485       O  0.21706860  0.91507381  0.28796442    -0.39500
O1486       O  0.23494042  0.94315474  0.26228030    -0.39400
O1487       O  0.33364087  0.80296521  0.27164472    -0.40100
O1488       O  0.35038141  0.82655127  0.24391812    -0.40200
C1489       C  0.38342660  0.48657066  0.23099804    -0.12500
C1490       C  0.38329177  0.98763139  0.25273124     0.04500
C1491       C  0.37461689  0.50828861  0.26523515    -0.07800
C1492       C  0.36239590  0.53612912  0.25666491    -0.08500
C1493       C  0.36174703  0.54072879  0.23542159    -0.03100
C1494       C  0.37116382  0.51520609  0.22245848     0.03800
N1495       N  0.37063829  0.51890344  0.20076182     0.66300
H1496       H  0.39610295  0.97331310  0.22176135     0.15200
H1497       H  0.35418626  0.55502992  0.26695733     0.14900
N1498       N  0.36078404  0.00716704  0.28603962     0.74000
O1499       O  0.39287930  0.53404380  0.19205322    -0.39500
O1500       O  0.34593441  0.51132369  0.19081713    -0.39400
O1501       O  0.37681353  0.02342183  0.29878364    -0.40100
O1502       O  0.33593244  0.99278290  0.29197831    -0.40200
C1503       C  0.41188828  0.75309660  0.24322287    -0.12500
C1504       C  0.38982446  0.73392307  0.25377761     0.04500
C1505       C  0.38168663  0.74283511  0.27417274    -0.07800
C1506       C  0.39417877  0.77154773  0.28285983    -0.08500
C1507       C  0.41443080  0.79168682  0.27137964    -0.03100
C1508       C  0.42409546  0.78123844  0.25158836     0.03800
N1509       N  0.44621613  0.79907709  0.23933349     0.66300
H1510       H  0.41973570  0.74671458  0.22785663     0.15200
H1511       H  0.38635627  0.77909954  0.29801172     0.14900
N1512       N  0.36022881  0.72373692  0.28601675     0.74000
O1513       O  0.47369834  0.78749952  0.23647496    -0.39500
O1514       O  0.43552210  0.81890728  0.22645258    -0.39400
O1515       O  0.37113951  0.70499194  0.29945337    -0.40100
O1516       O  0.33072993  0.72976488  0.28566256    -0.40200
C1517       C  0.16033599  0.59762265  0.35958060    -0.12500
C1518       C  0.12803650  0.60217026  0.35449667     0.04500
C1519       C  0.10619211  0.60898188  0.37058453    -0.07800
C1520       C  0.11639033  0.60868081  0.39112467    -0.08500
C1521       C  0.14839140  0.60293203  0.39616608    -0.03100
C1522       C  0.17066803  0.59828583  0.38009538     0.03800
N1523       N  0.20348798  0.59188403  0.38437875     0.66300
H1524       H  0.17766033  0.59265107  0.34758924     0.15200
H1525       H  0.09905038  0.61265008  0.40326326     0.14900
N1526       N  0.07329708  0.61510790  0.36647854     0.74000
O1527       O  0.21253329  0.56328925  0.38712826    -0.39500
O1528       O  0.22401815  0.61362192  0.38156462    -0.39400
O1529       O  0.05299712  0.59309498  0.36909509    -0.40100
O1530       O  0.06399029  0.64368045  0.36399905    -0.40200
C1531       C  0.14391313  0.71950876  0.46762443    -0.12500
C1532       C  0.16680069  0.70091041  0.47793226     0.04500
C1533       C  0.17866045  0.71229174  0.49691571    -0.07800
C1534       C  0.16545622  0.73931491  0.50617986    -0.08500
C1535       C  0.14125233  0.75717654  0.49676908    -0.03100
C1536       C  0.13118655  0.74768852  0.47685254     0.03800
N1537       N  0.10680719  0.76502420  0.46638243     0.66300
H1538       H  0.13417824  0.71095492  0.45319116     0.15200
H1539       H  0.17456467  0.74618424  0.52113780     0.14900
N1540       N  0.20340102  0.69567869  0.50763008     0.74000
O1541       O  0.07794688  0.75745985  0.46906506    -0.39500
O1542       O  0.11425525  0.78367974  0.45192701    -0.39400
O1543       O  0.23181145  0.70513200  0.50555790    -0.40100
O1544       O  0.19622589  0.67853362  0.52290101    -0.40200
C1545       C  0.11336651  0.00582206  0.51368713    -0.12500
C1546       C  0.14805497  0.50598425  0.50704432     0.04500
C1547       C  0.16395697  0.47671805  0.50340320    -0.07800
C1548       C  0.15370045  0.95268285  0.51438050    -0.08500
C1549       C  0.12168215  0.94906166  0.52067958    -0.03100
C1550       C  0.10181073  0.97642270  0.52125688     0.03800
N1551       N  0.06928602  0.97422073  0.52769504     0.66300
H1552       H  0.09738213  0.02626450  0.51290513     0.15200
H1553       H  0.16982368  0.93227903  0.51443521     0.14900
N1554       N  0.18977136  0.47452617  0.48911039     0.74000
O1555       O  0.06193781  0.98160880  0.54592909    -0.39500
O1556       O  0.04759167  0.97150192  0.51439117    -0.39400
O1557       O  0.21808099  0.47468012  0.49564695    -0.40100
O1558       O  0.18422939  0.46462445  0.47112081    -0.40200
C1559       C  0.35739772  0.88350795  0.38555744    -0.12500
C1560       C  0.38176369  0.88495498  0.40031766     0.04500
C1561       C  0.41373629  0.88222761  0.39359339    -0.07800
C1562       C  0.42078094  0.88016984  0.37248594    -0.08500
C1563       C  0.39647029  0.88110177  0.35766323    -0.03100
C1564       C  0.36439708  0.88180993  0.36447917     0.03800
N1565       N  0.33856421  0.88138201  0.35018839     0.66300
H1566       H  0.33265372  0.88520049  0.39032679     0.15200
H1567       H  0.44554657  0.87946854  0.36767447     0.14900
N1568       N  0.43940416  0.88185077  0.40795983     0.74000
O1569       O  0.32659732  0.85482805  0.34476034    -0.39500
O1570       O  0.32400699  0.90714958  0.34617826    -0.39400
O1571       O  0.44938305  0.85528755  0.41466831    -0.40100
O1572       O  0.45623082  0.90673941  0.41031001    -0.40200
C1573       C  0.23432623  0.99248284  0.43858835    -0.12500
C1574       C  0.24332150  0.52369683  0.43858078     0.04500
C1575       C  0.27643651  0.53022550  0.43780862    -0.07800
C1576       C  0.29862517  0.50482604  0.43794075    -0.08500
C1577       C  0.28943052  0.97306874  0.44054558    -0.03100
C1578       C  0.25624389  0.96688573  0.43930540     0.03800
N1579       N  0.24417356  0.93475669  0.43860331     0.66300
H1580       H  0.20909678  0.98680735  0.43839953     0.15200
H1581       H  0.32379445  0.51063143  0.43763683     0.14900
N1582       N  0.28809284  0.56246972  0.43682981     0.74000
O1583       O  0.23490151  0.92144433  0.45493366    -0.39500
O1584       O  0.23697459  0.92237939  0.42148845    -0.39400
O1585       O  0.29681900  0.57667259  0.45305367    -0.40100
O1586       O  0.29484089  0.57448691  0.41960466    -0.40200
C1587       C  0.25549338  0.84538054  0.50169848    -0.12500
C1588       C  0.26997034  0.87381222  0.50859503     0.04500
C1589       C  0.25707126  0.88959698  0.52603351    -0.07800
C1590       C  0.22786980  0.87882803  0.53443495    -0.08500
C1591       C  0.21240478  0.85172435  0.52613152    -0.03100
C1592       C  0.22753145  0.83408459  0.51038747     0.03800
N1593       N  0.21389501  0.80525775  0.50219587     0.66300
H1594       H  0.26555139  0.83178133  0.48898155     0.15200
H1595       H  0.21645894  0.89263970  0.54655696     0.14900
N1596       N  0.27238751  0.91709653  0.53476519     0.74000
O1597       O  0.19774264  0.80670888  0.48588952    -0.39500
O1598       O  0.22576789  0.77865742  0.50738456    -0.39400
O1599       O  0.26135968  0.94478431  0.53139189    -0.40100
O1600       O  0.29269405  0.91330934  0.54882533    -0.40200
C1601       C  0.46238898  0.85497612  0.49472253    -0.12500
C1602       C  0.45986902  0.88367910  0.48345891     0.04500
C1603       C  0.48815265  0.89910734  0.47699330    -0.07800
C1604       C  0.51782024  0.88761989  0.48380904    -0.08500
C1605       C  0.02090073  0.86761605  0.49149232    -0.03100
C1606       C  0.99513356  0.84611926  0.49151261     0.03800
N1607       N  0.99899364  0.81380336  0.49844856     0.66300
H1608       H  0.44122925  0.84170398  0.49918036     0.15200
H1609       H  0.53925145  0.90099525  0.48009102     0.14900
N1610       N  0.48724472  0.92750105  0.46479037     0.74000
O1611       O  0.98931722  0.80601645  0.51610393    -0.39500
O1612       O  0.00719226  0.79217400  0.48582745    -0.39400
O1613       O  0.48885243  0.95466765  0.47346010    -0.40100
O1614       O  0.49254324  0.92532183  0.44575169    -0.40200
C1615       C  0.00650537  0.77876553  0.56473109    -0.12500
C1616       C  0.03798711  0.77177731  0.55862542     0.04500
C1617       C  0.04565243  0.73933736  0.55380069    -0.07800
C1618       C  0.02224270  0.71541474  0.55471488    -0.08500
C1619       C  0.49218444  0.71929976  0.56279891    -0.03100
C1620       C  0.48545775  0.75186268  0.56771104     0.03800
N1621       N  0.45371388  0.76231259  0.57220228     0.66300
H1622       H  0.99990636  0.80326273  0.56858866     0.15200
H1623       H  0.53024528  0.68610159  0.55520384     0.14900
N1624       N  0.07668447  0.73018636  0.54671395     0.74000
O1625       O  0.44521499  0.76618977  0.59065939    -0.39500
O1626       O  0.43664201  0.77356577  0.55801092    -0.39400
O1627       O  0.09568195  0.71651862  0.55887401    -0.40100
O1628       O  0.08239477  0.72956116  0.52767117    -0.40200
C1629       C  0.04727673  0.57892690  0.48694227    -0.12500
C1630       C  0.06665893  0.60252336  0.47823513     0.04500
C1631       C  0.05523955  0.63437668  0.47688021    -0.07800
C1632       C  0.02571444  0.64265484  0.48572201    -0.08500
C1633       C  0.50714213  0.61971998  0.49849954    -0.03100
C1634       C  0.51719371  0.58738517  0.49671390     0.03800
N1635       N  0.49964076  0.56199001  0.50612059     0.66300
H1636       H  0.05602115  0.55449021  0.48831947     0.15200
H1637       H  0.01783890  0.66747481  0.48547914     0.14900
N1638       N  0.07431615  0.65881018  0.46757542     0.74000
O1639       O  0.50857896  0.55182271  0.52339373    -0.39500
O1640       O  0.48108634  0.54500761  0.49534987    -0.39400
O1641       O  0.08323643  0.65591427  0.44911873    -0.40100
O1642       O  0.08373652  0.68245192  0.47815790    -0.40200
C1643       C  0.27588034  0.64965680  0.49607359    -0.12500
C1644       C  0.25785933  0.62455435  0.50466735     0.04500
C1645       C  0.26838611  0.61083770  0.52328865    -0.07800
C1646       C  0.29765106  0.62084907  0.53193620    -0.08500
C1647       C  0.31611014  0.64470326  0.52236890    -0.03100
C1648       C  0.30448047  0.65968795  0.50461948     0.03800
N1649       N  0.32215748  0.68442737  0.49447850     0.66300
H1650       H  0.26820087  0.66149449  0.48214525     0.15200
H1651       H  0.30667146  0.60892065  0.54548845     0.14900
N1652       N  0.25068193  0.58583621  0.53300304     0.74000
O1653       O  0.34244358  0.67671357  0.48096183    -0.39500
O1654       O  0.31163269  0.71284652  0.49492886    -0.39400
O1655       O  0.25905574  0.55693803  0.53046712    -0.40100
O1656       O  0.23094691  0.59287862  0.54699180    -0.40200
C1657       C  0.40057029  0.99236096  0.52648565    -0.12500
C1658       C  0.37935646  0.99271800  0.50973837     0.04500
C1659       C  0.36218769  0.52032362  0.50540708    -0.07800
C1660       C  0.37227968  0.54890828  0.51450783    -0.08500
C1661       C  0.39871987  0.54958009  0.52770635    -0.03100
C1662       C  0.41246425  0.52030918  0.53398104     0.03800
N1663       N  0.43838807  0.51956517  0.54816453     0.66300
H1664       H  0.41147601  0.96995247  0.53118064     0.15200
H1665       H  0.36079146  0.57115661  0.51001541     0.14900
N1666       N  0.34315259  0.02335650  0.48731703     0.74000
O1667       O  0.46561438  0.51100766  0.54190743    -0.39500
O1668       O  0.43236138  0.51863144  0.56715001    -0.39400
O1669       O  0.31349854  0.02285651  0.49067641    -0.40100
O1670       O  0.34317731  0.53094245  0.47275142    -0.40200
C1671       C  0.36394702  0.75811291  0.51117584    -0.12500
C1672       C  0.38957038  0.74179450  0.50203155     0.04500
C1673       C  0.40080453  0.75235755  0.48269648    -0.07800
C1674       C  0.38785843  0.78043791  0.47384565    -0.08500
C1675       C  0.36325199  0.79748359  0.48381571    -0.03100
C1676       C  0.35057450  0.78513886  0.50226305     0.03800
N1677       N  0.32422391  0.80015827  0.51250531     0.66300
H1678       H  0.35368272  0.74965838  0.52546862     0.15200
H1679       H  0.39826407  0.78989303  0.45987559     0.14900
N1680       N  0.42635811  0.73608571  0.47248620     0.74000
O1681       O  0.29713067  0.78711209  0.51123567    -0.39500
O1682       O  0.32958752  0.81946361  0.52712989    -0.39400
O1683       O  0.42032042  0.71717595  0.45777318    -0.40100
O1684       O  0.45471436  0.74507797  0.47552885    -0.40200
C1685       C  0.49182250  0.71854605  0.93920106    -0.12500
C1686       C  0.02751226  0.73002653  0.94071659     0.04500
C1687       C  0.03465831  0.76329700  0.94215256    -0.07800
C1688       C  0.00989088  0.78626119  0.94263237    -0.08500
C1689       C  0.47391674  0.77486092  0.93920626    -0.03100
C1690       C  0.46702120  0.74145001  0.93856413     0.03800
N1691       N  0.43487963  0.73003086  0.93809286     0.66300
H1692       H  0.48541551  0.69330434  0.93934131     0.15200
H1693       H  0.01615095  0.81135207  0.94469416     0.14900
N1694       N  0.06684713  0.77437745  0.94358099     0.74000
O1695       O  0.42202149  0.72363097  0.92104549    -0.39500
O1696       O  0.42186155  0.72048843  0.95446196    -0.39400
O1697       O  0.08179280  0.78143044  0.92737379    -0.40100
O1698       O  0.07754179  0.78379063  0.96067306    -0.40200
C1699       C  0.14242215  0.89234112  0.14565177    -0.12500
C1700       C  0.14935117  0.85990598  0.14981274     0.04500
C1701       C  0.15193482  0.83824138  0.13314665    -0.07800
C1702       C  0.14923008  0.84940684  0.11291213    -0.08500
C1703       C  0.14358567  0.88204386  0.10865667    -0.03100
C1704       C  0.13912469  0.90342866  0.12534701     0.03800
N1705       N  0.13357033  0.93685615  0.12197739     0.66300
H1706       H  0.14038737  0.90939232  0.15824571     0.15200
H1707       H  0.15310436  0.83259431  0.10035876     0.14900
N1708       N  0.16107609  0.80560392  0.13634828     0.74000
O1709       O  0.10531612  0.94731626  0.12176412    -0.39500
O1710       O  0.15646836  0.95644889  0.12333299    -0.39400
O1711       O  0.14076398  0.78348886  0.13403400    -0.40100
O1712       O  0.19034348  0.79862961  0.13700259    -0.40200
C1713       C  0.02591704  0.88839630  0.03513102    -0.12500
C1714       C  0.04814028  0.90475890  0.02269409     0.04500
C1715       C  0.03940625  0.91170895  0.00218359    -0.07800
C1716       C  0.01110797  0.89989063  0.99413280    -0.08500
C1717       C  0.49039302  0.87695960  0.00103158    -0.03100
C1718       C  0.99686678  0.87652406  0.02678272     0.03800
N1719       N  0.47380690  0.86150159  0.03608878     0.66300
H1720       H  0.03192346  0.88302530  0.05091733     0.15200
H1721       H  0.00636091  0.90526182  0.97816317     0.14900
N1722       N  0.05948936  0.93000818  0.98875037     0.74000
O1723       O  0.47555831  0.83183650  0.03989418    -0.39500
O1724       O  0.45670998  0.87935803  0.04733606    -0.39400
O1725       O  0.05129168  0.95829507  0.98426921    -0.40100
O1726       O  0.07818560  0.91523790  0.97674260    -0.40200
C1727       C  0.25805474  0.89906061  0.98577619    -0.12500
C1728       C  0.23858809  0.87607783  0.99523026     0.04500
C1729       C  0.24588756  0.84326230  0.99283762    -0.07800
C1730       C  0.27448041  0.83407646  0.98341135    -0.08500
C1731       C  0.29623399  0.85708561  0.97648144    -0.03100
C1732       C  0.28665012  0.88979503  0.97584098     0.03800
N1733       N  0.30477987  0.91322668  0.96449251     0.66300
H1734       H  0.25128073  0.92417387  0.98658554     0.15200
H1735       H  0.28021678  0.80897935  0.98223365     0.14900
N1736       N  0.22451130  0.81907758  0.00018977     0.74000
O1737       O  0.32341777  0.90429844  0.95028925    -0.39500
O1738       O  0.29827664  0.94278501  0.96615724    -0.39400
O1739       O  0.19810578  0.81458347  0.99134988    -0.40100
O1740       O  0.23098641  0.80377333  0.01632793    -0.40200
C1741       C  0.09399000  0.77146214  0.00712809    -0.12500
C1742       C  0.11466145  0.74556659  0.00951673     0.04500
C1743       C  0.14261278  0.74933681  0.02127281    -0.07800
C1744       C  0.15104992  0.77976665  0.02869692    -0.08500
C1745       C  0.13213592  0.80650828  0.02423955    -0.03100
C1746       C  0.10252222  0.80193830  0.01427269     0.03800
N1747       N  0.08075830  0.82784191  0.01124422     0.66300
H1748       H  0.07186484  0.76832682  0.99877963     0.15200
H1749       H  0.17362726  0.78283846  0.03655231     0.14900
N1750       N  0.16417418  0.72322878  0.02411951     0.74000
O1751       O  0.08214376  0.84360123  0.99476103    -0.39500
O1752       O  0.05514351  0.82798138  0.02144102    -0.39400
O1753       O  0.19003872  0.72278259  0.01415752    -0.40100
O1754       O  0.16131128  0.70593017  0.03987547    -0.40200
C1755       C  0.08387642  0.54095189  0.99512619    -0.12500
C1756       C  0.10090122  0.55222847  0.97804604     0.04500
C1757       C  0.12828864  0.53551238  0.97149598    -0.07800
C1758       C  0.13921994  0.50908411  0.98287084    -0.08500
C1759       C  0.12225588  0.99764472  0.00142729    -0.03100
C1760       C  0.09293830  0.01286570  0.00613569     0.03800
N1761       N  0.07476325  0.00466070  0.02400790     0.66300
H1762       H  0.06307120  0.55405563  0.00056280     0.15200
H1763       H  0.16112772  0.99521998  0.97955457     0.14900
N1764       N  0.14657056  0.54656251  0.95441683     0.74000
O1765       O  0.08178084  0.01745808  0.04103245    -0.39500
O1766       O  0.04803088  0.99106659  0.02200245    -0.39400
O1767       O  0.17312190  0.55997013  0.95752963    -0.40100
O1768       O  0.13951783  0.53711454  0.93654320    -0.40200
C1769       C  0.36789600  0.58305351  0.11742884    -0.12500
C1770       C  0.37018304  0.60789353  0.10315271     0.04500
C1771       C  0.37491802  0.63962229  0.11035243    -0.07800
C1772       C  0.37462485  0.64613386  0.13153855    -0.08500
C1773       C  0.36924710  0.62155518  0.14590512    -0.03100
C1774       C  0.36698180  0.58945701  0.13854460     0.03800
N1775       N  0.36288343  0.56281394  0.15199985     0.66300
H1776       H  0.36440533  0.55851301  0.11217739     0.15200
H1777       H  0.37717818  0.67083433  0.13667469     0.14900
N1778       N  0.37979214  0.66551950  0.09635685     0.74000
O1779       O  0.33516158  0.55639263  0.15837374    -0.39500
O1780       O  0.38342241  0.54062763  0.15145140    -0.39400
O1781       O  0.35737750  0.68498306  0.09287595    -0.40100
O1782       O  0.40776723  0.67241036  0.09068828    -0.40200
C1783       C  0.28262671  0.99107943  0.06716228    -0.12500
C1784       C  0.27589872  0.52119335  0.06287807     0.04500
C1785       C  0.24338210  0.52947108  0.06055025    -0.07800
C1786       C  0.21972383  0.50543788  0.06019475    -0.08500
C1787       C  0.22666177  0.97510709  0.06328166    -0.03100
C1788       C  0.25891875  0.96711221  0.06728196     0.03800
N1789       N  0.26824046  0.93476854  0.07145566     0.66300
H1790       H  0.30717524  0.98411679  0.06980721     0.15200
H1791       H  0.19523706  0.51257252  0.05746118     0.14900
N1792       N  0.23391761  0.56189663  0.05705495     0.74000
O1793       O  0.28023336  0.91780801  0.05727163    -0.39500
O1794       O  0.27098825  0.92582681  0.08985594    -0.39400
O1795       O  0.22667342  0.57032793  0.03907086    -0.40100
O1796       O  0.22445517  0.57864499  0.07209945    -0.40200
C1797       C  0.20352311  0.65015662  0.00905727    -0.12500
C1798       C  0.19786929  0.64899897  0.98792954     0.04500
C1799       C  0.22286940  0.63987684  0.97463817    -0.07800
C1800       C  0.25223184  0.63001693  0.98276515    -0.08500
C1801       C  0.25731325  0.63030816  0.00400821    -0.03100
C1802       C  0.23317324  0.64255350  0.01711205     0.03800
N1803       N  0.23883509  0.64935143  0.03839258     0.66300
H1804       H  0.18479453  0.65777162  0.01947321     0.15200
H1805       H  0.27071475  0.62129961  0.97247491     0.14900
N1806       N  0.21830265  0.63792795  0.95307576     0.74000
O1807       O  0.25753472  0.67196886  0.04315648    -0.39500
O1808       O  0.21974085  0.63883931  0.05178060    -0.39400
O1809       O  0.22988448  0.65986796  0.94203910    -0.40100
O1810       O  0.21335384  0.61060178  0.94524365    -0.40200
C1811       C  0.46780461  0.61497942  0.03090382    -0.12500
C1812       C  0.45156264  0.59045986  0.02022122     0.04500
C1813       C  0.46528275  0.57751247  0.00229401    -0.07800
C1814       C  0.49278331  0.59112530  0.99420517    -0.08500
C1815       C  0.00621112  0.61915386  0.00225907    -0.03100
C1816       C  0.99656000  0.62670002  0.02255295     0.03800
N1817       N  0.01318016  0.65036446  0.03436740     0.66300
H1818       H  0.45761435  0.62484490  0.04487063     0.15200
H1819       H  0.50228037  0.58078204  0.98014189     0.14900
N1820       N  0.45054033  0.55150223  0.99143727     0.74000
O1821       O  0.00691781  0.67980125  0.03204345    -0.39500
O1822       O  0.03593048  0.64207888  0.04583515    -0.39400
O1823       O  0.43805114  0.55668972  0.97415693    -0.40100
O1824       O  0.45661709  0.52297041  0.99663619    -0.40200
C1825       C  0.37653928  0.50447296  0.97337683    -0.12500
C1826       C  0.35686184  0.50454550  0.99095228     0.04500
C1827       C  0.34752993  0.97617393  0.00071323    -0.07800
C1828       C  0.35803950  0.94741074  0.99209794    -0.08500
C1829       C  0.37899585  0.94673371  0.97517451    -0.03100
C1830       C  0.38614572  0.97594157  0.96525882     0.03800
N1831       N  0.40602872  0.97653640  0.94743363     0.66300
H1832       H  0.38494273  0.52705547  0.96721342     0.15200
H1833       H  0.35093625  0.92525764  0.99952786     0.14900
N1834       N  0.32835058  0.97513623  0.01887628     0.74000
O1835       O  0.40194543  0.47851872  0.93054235    -0.39500
O1836       O  0.43505138  0.98411601  0.94916150    -0.39400
O1837       O  0.29852453  0.97199361  0.01718340    -0.40100
O1838       O  0.34144609  0.96903390  0.03584256    -0.40200
C1839       C  0.40068891  0.73554911  0.01113862    -0.12500
C1840       C  0.37587977  0.75547418  0.00463166     0.04500
C1841       C  0.34406695  0.74598951  0.00829292    -0.07800
C1842       C  0.33740765  0.71672253  0.01791069    -0.08500
C1843       C  0.36209490  0.69592189  0.02334684    -0.03100
C1844       C  0.39399319  0.70591354  0.02044592     0.03800
N1845       N  0.41976874  0.68534090  0.02593896     0.66300
H1846       H  0.42524441  0.74244206  0.00830830     0.15200
H1847       H  0.31280303  0.70896422  0.01935059     0.14900
N1848       N  0.31812223  0.76427773  0.00053781     0.74000
O1849       O  0.43861448  0.67518202  0.01223313    -0.39500
O1850       O  0.42216847  0.67526697  0.04411646    -0.39400
O1851       O  0.30701610  0.75700213  0.98311390    -0.40100
O1852       O  0.30117772  0.78018023  0.01300904    -0.40200
C1853       C  0.38697671  0.87263213  0.85883221    -0.12500
C1854       C  0.35501488  0.86698670  0.85339772     0.04500
C1855       C  0.33297449  0.85981980  0.86915146    -0.07800
C1856       C  0.34358440  0.85598784  0.88948271    -0.08500
C1857       C  0.37595186  0.85977503  0.89474177    -0.03100
C1858       C  0.39751166  0.86945093  0.87918461     0.03800
N1859       N  0.43062804  0.87414035  0.88341332     0.66300
H1860       H  0.40431180  0.87821963  0.84698949     0.15200
H1861       H  0.32640804  0.84919264  0.90114845     0.14900
N1862       N  0.30019781  0.85383682  0.86456450     0.74000
O1863       O  0.44972067  0.85085223  0.88145867    -0.39500
O1864       O  0.44149182  0.90234969  0.88496052    -0.39400
O1865       O  0.29043544  0.82524543  0.86286267    -0.40100
O1866       O  0.28023119  0.87643031  0.86615365    -0.40200
C1867       C  0.16053344  0.63920643  0.86996458    -0.12500
C1868       C  0.13619351  0.63833963  0.85532152     0.04500
C1869       C  0.10415303  0.63834009  0.86212682    -0.07800
C1870       C  0.09719785  0.64124608  0.88311408    -0.08500
C1871       C  0.12159488  0.64461465  0.89774258    -0.03100
C1872       C  0.15357241  0.64259814  0.89093252     0.03800
N1873       N  0.17953301  0.64375255  0.90492332     0.66300
H1874       H  0.18527828  0.63918505  0.86506972     0.15200
H1875       H  0.07240754  0.64207852  0.88787146     0.14900
N1876       N  0.07833290  0.63590257  0.84790354     0.74000
O1877       O  0.19671018  0.61900647  0.90659420    -0.39500
O1878       O  0.19120352  0.67082804  0.90945504    -0.39400
O1879       O  0.06682276  0.60861800  0.84369871    -0.40100
O1880       O  0.06322065  0.66088282  0.84287103    -0.40200
C1881       C  0.21897908  0.75428758  0.81645286    -0.12500
C1882       C  0.22934298  0.72271359  0.81216008     0.04500
C1883       C  0.26231798  0.71808036  0.80808455    -0.07800
C1884       C  0.28324418  0.74464149  0.80699221    -0.08500
C1885       C  0.27243059  0.77633690  0.81018419    -0.03100
C1886       C  0.23996271  0.78074524  0.81560380     0.03800
N1887       N  0.22778295  0.81199363  0.82042539     0.66300
H1888       H  0.19406578  0.75879437  0.81989759     0.15200
H1889       H  0.30801920  0.74042344  0.80300309     0.14900
N1890       N  0.27498334  0.68659135  0.80462807     0.74000
O1891       O  0.21192275  0.82710837  0.80715776    -0.39500
O1892       O  0.22722388  0.82137162  0.83889286    -0.39400
O1893       O  0.28400142  0.67821748  0.78688720    -0.40100
O1894       O  0.27785140  0.66733324  0.81941935    -0.40200
C1895       C  0.10126578  0.90844900  0.63302077    -0.12500
C1896       C  0.10161076  0.88346971  0.64747900     0.04500
C1897       C  0.10611119  0.85171840  0.64024441    -0.07800
C1898       C  0.10985927  0.84549580  0.61913249    -0.08500
C1899       C  0.10816018  0.87024457  0.60458338    -0.03100
C1900       C  0.10386830  0.90214742  0.61181514     0.03800
N1901       N  0.10169322  0.92848237  0.59789139     0.66300
H1902       H  0.09778934  0.93304841  0.63815316     0.15200
H1903       H  0.11286301  0.82080199  0.61406698     0.14900
N1904       N  0.10757639  0.82537576  0.65408994     0.74000
O1905       O  0.07458048  0.93793885  0.59208454    -0.39500
O1906       O  0.12565790  0.94632655  0.59515374    -0.39400
O1907       O  0.08266639  0.80908905  0.65726587    -0.40100
O1908       O  0.13443143  0.81318355  0.65797285    -0.40200
C1909       C  0.46487219  0.86149334  0.78010870    -0.12500
C1910       C  0.43951492  0.88063977  0.77339994     0.04500
C1911       C  0.44657129  0.90905770  0.76213190    -0.07800
C1912       C  0.97507567  0.91088112  0.75553163    -0.08500
C1913       C  0.00034094  0.88976745  0.75875127    -0.03100
C1914       C  0.99582084  0.86273480  0.77141469     0.03800
N1915       N  0.02079070  0.83998236  0.77444068     0.66300
H1916       H  0.46032185  0.84026123  0.78917726     0.15200
H1917       H  0.97854987  0.93206771  0.74614698     0.14900
N1918       N  0.42232958  0.93083185  0.75544095     0.74000
O1919       O  0.03782252  0.84216713  0.79034075    -0.39500
O1920       O  0.02003990  0.81377564  0.76457732    -0.39400
O1921       O  0.42281226  0.95933136  0.76217559    -0.40100
O1922       O  0.40804291  0.92512082  0.73876500    -0.40200
C1923       C  0.21739382  0.88991226  0.71738483    -0.12500
C1924       C  0.19042084  0.87732832  0.72723205     0.04500
C1925       C  0.19460822  0.85353446  0.74250527    -0.07800
C1926       C  0.22508369  0.84596933  0.74935397    -0.08500
C1927       C  0.25172859  0.86124152  0.74118440    -0.03100
C1928       C  0.24813133  0.88191115  0.72422593     0.03800
N1929       N  0.27512099  0.89706368  0.71500048     0.66300
H1930       H  0.21464627  0.90783494  0.70549852     0.15200
H1931       H  0.22776707  0.82970747  0.76221051     0.14900
N1932       N  0.16828029  0.83739217  0.75184063     0.74000
O1933       O  0.29064857  0.88208270  0.70135073    -0.39500
O1934       O  0.27832469  0.92713401  0.71657481    -0.39400
O1935       O  0.16452924  0.80793375  0.74785115    -0.40100
O1936       O  0.15690021  0.84848810  0.76839440    -0.40200
C1937       C  0.11986732  0.74932177  0.73243788    -0.12500
C1938       C  0.11963723  0.74436184  0.75376181     0.04500
C1939       C  0.10459521  0.76726520  0.76663943    -0.07800
C1940       C  0.09145152  0.79473656  0.75821542    -0.08500
C1941       C  0.09352163  0.80104623  0.73716217    -0.03100
C1942       C  0.10774632  0.77797923  0.72410784     0.03800
N1943       N  0.11468866  0.78533863  0.70323699     0.66300
H1944       H  0.13159057  0.73206991  0.72241835     0.15200
H1945       H  0.08170828  0.81261754  0.76860483     0.14900
N1946       N  0.10329354  0.76376469  0.78847325     0.74000
O1947       O  0.13802012  0.80353875  0.69939799    -0.39500
O1948       O  0.10371587  0.76749511  0.68919951    -0.39400
O1949       O  0.12356087  0.77822488  0.79946160    -0.40100
O1950       O  0.07820024  0.75313012  0.79672934    -0.40200
C1951       C  0.11839003  0.49838009  0.77390620    -0.12500
C1952       C  0.13336228  0.98994661  0.75632514     0.04500
C1953       C  0.16258744  0.00422598  0.75034642    -0.07800
C1954       C  0.15836133  0.53868120  0.75171962    -0.08500
C1955       C  0.14867095  0.54838160  0.77137407    -0.03100
C1956       C  0.12898862  0.52757611  0.78286499     0.03800
N1957       N  0.11763753  0.53674629  0.80275257     0.66300
H1958       H  0.10223821  0.48303780  0.78241854     0.15200
H1959       H  0.17270275  0.55445945  0.74241518     0.14900
N1960       N  0.18143573  0.99162430  0.73382320     0.74000
O1961       O  0.09153703  0.55165634  0.80444543    -0.39500
O1962       O  0.13039024  0.52489268  0.81852488    -0.39400
O1963       O  0.17947386  0.00419546  0.71627224    -0.40100
O1964       O  0.20437540  0.97299234  0.73771196    -0.40200
C1965       C  0.38312955  0.63788996  0.64356253    -0.12500
C1966       C  0.40833512  0.62075834  0.65251881     0.04500
C1967       C  0.43315792  0.60914674  0.63993216    -0.07800
C1968       C  0.43293740  0.61528012  0.61892997    -0.08500
C1969       C  0.40855526  0.63347791  0.60976887    -0.03100
C1970       C  0.38318221  0.64464894  0.62236028     0.03800
N1971       N  0.35780461  0.66346006  0.61410814     0.66300
H1972       H  0.36386040  0.64685327  0.65313992     0.15200
H1973       H  0.45256152  0.60593787  0.60981430     0.14900
N1974       N  0.45858324  0.59034136  0.64821320     0.74000
O1975       O  0.33187715  0.64995713  0.60934195    -0.39500
O1976       O  0.35876407  0.69369119  0.61579593    -0.39400
O1977       O  0.45670606  0.56005959  0.64778529    -0.40100
O1978       O  0.48497781  0.60354037  0.65220486    -0.40200
C1979       C  0.99352996  0.97385463  0.69369570    -0.12500
C1980       C  0.02629425  0.98105953  0.69519039     0.04500
C1981       C  0.03514218  0.01395284  0.69648986    -0.07800
C1982       C  0.51348121  0.53708044  0.69843388    -0.08500
C1983       C  0.48065005  0.52992110  0.69817441    -0.03100
C1984       C  0.96193093  0.49292341  0.69505316     0.03800
N1985       N  0.43886488  0.48818321  0.69542192     0.66300
H1986       H  0.98581437  0.94901613  0.69283445     0.15200
H1987       H  0.52126512  0.56183309  0.69994443     0.14900
N1988       N  0.06779148  0.02353123  0.69817175     0.74000
O1989       O  0.91523861  0.48132236  0.67727639    -0.39500
O1990       O  0.42648127  0.47644190  0.71138620    -0.39400
O1991       O  0.08218030  0.03401188  0.68253380    -0.40100
O1992       O  0.07974188  0.02805007  0.71573294    -0.40200
C1993       C  0.32447341  0.97177346  0.75319370    -0.12500
C1994       C  0.33537467  0.95954375  0.77189341     0.04500
C1995       C  0.35719789  0.97806207  0.78350787    -0.07800
C1996       C  0.36523562  0.51117697  0.77650572    -0.08500
C1997       C  0.36357997  0.51768416  0.75527663    -0.03100
C1998       C  0.33725298  0.99964004  0.74478517     0.03800
N1999       N  0.32593029  0.00984273  0.72517651     0.66300
H2000       H  0.30712882  0.95838734  0.74433710     0.15200
H2001       H  0.37672923  0.52825220  0.78670829     0.14900
N2002       N  0.36871623  0.96681786  0.80280674     0.74000
O2003       O  0.33730256  0.99722175  0.70907057    -0.39500
O2004       O  0.30033553  0.02569684  0.72414863    -0.39400
O2005       O  0.39433448  0.95093291  0.80354577    -0.40100
O2006       O  0.35648359  0.97744458  0.81922174    -0.40200
C2007       C  0.37819169  0.75816111  0.72746965    -0.12500
C2008       C  0.38596555  0.77000292  0.74715672     0.04500
C2009       C  0.40943524  0.75382184  0.75868786    -0.07800
C2010       C  0.42127531  0.72436375  0.75198296    -0.08500
C2011       C  0.41101256  0.71067606  0.73352765    -0.03100
C2012       C  0.39095612  0.72855084  0.72048525     0.03800
N2013       N  0.38249466  0.71631338  0.70064848     0.66300
H2014       H  0.36103500  0.77083671  0.71809645     0.15200
H2015       H  0.43765638  0.71135749  0.76176996     0.14900
N2016       N  0.42159717  0.76705597  0.77739163     0.74000
O2017       O  0.36485747  0.69182426  0.69913020    -0.39500
O2018       O  0.39794711  0.72560122  0.68511993    -0.39400
O2019       O  0.41280415  0.75533896  0.79432222    -0.40100
O2020       O  0.44656505  0.78394258  0.77673995    -0.40200
C2021       C  0.04338689  0.60928173  0.77585917    -0.12500
C2022       C  0.05139466  0.64210949  0.77754454     0.04500
C2023       C  0.02729885  0.66538547  0.77512895    -0.07800
C2024       C  0.49378597  0.65034440  0.77762875    -0.08500
C2025       C  0.48726539  0.61899793  0.77086446    -0.03100
C2026       C  0.01250586  0.59964060  0.77035475     0.03800
N2027       N  0.00583368  0.56634357  0.76694577     0.66300
H2028       H  0.06165810  0.59110896  0.77770613     0.15200
H2029       H  0.47546864  0.66866964  0.77656938     0.14900
N2030       N  0.03442117  0.69899263  0.77554111     0.74000
O2031       O  0.01431572  0.55306411  0.75033029    -0.39500
O2032       O  0.48602096  0.54600823  0.77589889    -0.39400
O2033       O  0.04693302  0.71179707  0.75994272    -0.40100
O2034       O  0.02136287  0.71666542  0.78895406    -0.40200
C2035       C  0.26237308  0.66079798  0.74176578    -0.12500
C2036       C  0.24131946  0.63488981  0.74361308     0.04500
C2037       C  0.25089036  0.60447771  0.73607833    -0.07800
C2038       C  0.28171521  0.59989243  0.72833359    -0.08500
C2039       C  0.30408989  0.62480675  0.72868970    -0.03100
C2040       C  0.29378333  0.65602767  0.73474461     0.03800
N2041       N  0.31490450  0.68302460  0.73451579     0.66300
H2042       H  0.25528650  0.68435561  0.74735389     0.15200
H2043       H  0.28892681  0.57586897  0.72374477     0.14900
N2044       N  0.23012954  0.57742040  0.73689636     0.74000
O2045       O  0.30943292  0.70553975  0.72209831    -0.39500
O2046       O  0.33191963  0.68873306  0.75008406    -0.39400
O2047       O  0.21827926  0.56713625  0.72030635    -0.40100
O2048       O  0.23215808  0.55865105  0.75200430    -0.40200
O2049       O  0.85722424  0.12672589  0.73938742    -0.82000
C2050       C  0.95520829  0.05751416  0.69989359     0.97400
O2051       O  0.92556627  0.05354192  0.69617601    -0.71100
O2052       O  0.88483285  0.04434880  0.72584691    -0.74700
Al2053     Al  0.88722321  0.07617357  0.70557913     1.49000
C2054       C  0.87832948  0.04532114  0.74464419     0.92600
O2055       O  0.93830646  0.10043001  0.75782173    -0.80900
O2056       O  0.92333015  0.16520378  0.71328987    -0.74500
Al2057     Al  0.89789374  0.11279446  0.74695215     1.90100
O2058       O  0.96527154  0.12928928  0.73570675    -0.73600
O2059       O  0.93167470  0.12357765  0.68239007    -0.73400
O2060       O  0.96529577  0.08405431  0.70709908    -0.79100
O2061       O  0.88464057  0.10223001  0.68149526    -0.77300
O2062       O  0.90921647  0.10391045  0.72090677    -1.13400
O2063       O  0.84615590  0.09445945  0.71339977    -0.72600
C2064       C  0.83776964  0.11579081  0.72647531     0.98100
C2065       C  0.96300974  0.11593769  0.75295252     0.94500
Al2066     Al  0.94333933  0.12372322  0.71045576     1.55600
O2067       O  0.88179576  0.07115382  0.75449203    -0.77200
C2068       C  0.90693250  0.11669937  0.67255961     0.98700
C2069       C  0.91422227  0.17572559  0.73066701     0.93600
O2070       O  0.90991835  0.15680546  0.74556846    -0.82500
O2071       O  0.64292336  0.39386580  0.74190164    -0.82000
C2072       C  0.55159888  0.45295455  0.69824325     0.97400
O2073       O  0.58046520  0.45940870  0.70282309    -0.71100
O2074       O  0.63089428  0.45542417  0.72781742    -0.74700
Al2075     Al  0.61530637  0.43026957  0.70566262     1.49000
C2076       C  0.62111883  0.46102028  0.74566964     0.92600
O2077       O  0.55578658  0.39936147  0.75588608    -0.80900
O2078       O  0.57149396  0.34056468  0.71624459    -0.74500
Al2079     Al  0.59832526  0.39791738  0.74650533     1.90100
O2080       O  0.52867465  0.38713202  0.72830487    -0.73600
O2081       O  0.58176841  0.37176919  0.68245704    -0.73400
O2082       O  0.54216197  0.42369151  0.69645688    -0.79100
O2083       O  0.60885012  0.41518944  0.67835911    -0.77300
O2084       O  0.59038317  0.40340466  0.71977819    -1.13400
O2085       O  0.65090371  0.40142533  0.70855496    -0.72600
C2086       C  0.65988485  0.39048338  0.72587695     0.98100
C2087       C  0.52994133  0.39281546  0.74722162     0.94500
Al2088     Al  0.55881011  0.38281175  0.70690543     1.55600
O2089       O  0.60065743  0.44263011  0.75337417    -0.77200
C2090       C  0.59805572  0.38954311  0.67112731     0.98700
C2091       C  0.58670754  0.33270376  0.73222821     0.93600
O2092       O  0.59711965  0.35355962  0.74450572    -0.82500
O2093       O  0.60528362  0.13183329  0.76850922    -0.82000
C2094       C  0.70351189  0.19528177  0.81069945     0.97400
O2095       O  0.67398693  0.20004752  0.81424956    -0.71100
O2096       O  0.64256771  0.21422806  0.78155204    -0.74700
Al2097     Al  0.63589651  0.18251458  0.80123575     1.49000
C2098       C  0.63207457  0.21287694  0.76360106     0.92600
O2099       O  0.68883064  0.15513836  0.75161714    -0.80900
O2100       O  0.66518304  0.09002372  0.79499928    -0.74500
Al2101     Al  0.64679517  0.14435071  0.76121955     1.90100
O2102       O  0.71260679  0.12396866  0.77415950    -0.73600
O2103       O  0.67173358  0.13200553  0.82665065    -0.73400
O2104       O  0.71267928  0.16856379  0.80327680    -0.79100
O2105       O  0.62554091  0.15512521  0.82299079    -0.77300
O2106       O  0.65685554  0.15265134  0.78720357    -1.13400
O2107       O  0.59432426  0.17067937  0.79053927    -0.72600
C2108       C  0.58552901  0.14714076  0.77941028     0.98100
C2109       C  0.71280314  0.13874612  0.75719475     0.94500
Al2110     Al  0.68802290  0.13037064  0.79897645     1.55600
O2111       O  0.63189263  0.18651175  0.75401677    -0.77200
C2112       C  0.64484427  0.13988800  0.83380715     0.98700
C2113       C  0.65760330  0.08067818  0.77704695     0.93600
O2114       O  0.65708080  0.10037271  0.76236036    -0.82500
O2115       O  0.88531563  0.37945968  0.76947664    -0.82000
C2116       C  0.79223242  0.30399641  0.80928536     0.97400
O2117       O  0.82222356  0.30034008  0.81137663    -0.71100
O2118       O  0.85643494  0.29219326  0.77859927    -0.74700
Al2119     Al  0.85898043  0.32284443  0.79981298     1.49000
C2120       C  0.86686582  0.29571262  0.76070923     0.92600
O2121       O  0.80657020  0.34831956  0.75060689    -0.80900
O2122       O  0.82145890  0.41314896  0.79611296    -0.74500
Al2123     Al  0.84601207  0.36300168  0.76114703     1.90100
O2124       O  0.77819612  0.37416696  0.77414824    -0.73600
O2125       O  0.81890973  0.37013509  0.82719035    -0.73400
O2126       O  0.78122876  0.33060676  0.80316936    -0.79100
O2127       O  0.86576622  0.34849319  0.82316571    -0.77300
O2128       O  0.83582915  0.35180068  0.78684253    -1.13400
O2129       O  0.89947179  0.34035193  0.79012868    -0.72600
C2130       C  0.90635711  0.36528112  0.77970083     0.98100
C2131       C  0.78061175  0.36065177  0.75662477     0.94500
Al2132     Al  0.80266138  0.37059719  0.79920302     1.55600
O2133       O  0.86567515  0.32295305  0.75239823    -0.77200
C2134       C  0.84587477  0.36270602  0.83435468     0.98700
C2135       C  0.82809474  0.42443433  0.77855642     0.93600
O2136       O  0.83050161  0.40582486  0.76323920    -0.82500
O2137       O  0.89904569  0.08972935  0.01028666    -0.82000
C2138       C  0.80058331  0.04751267  0.05852720     0.97400
O2139       O  0.82671643  0.03710571  0.05131237    -0.71100
O2140       O  0.86933094  0.03466553  0.02185253    -0.74700
Al2141     Al  0.86584977  0.05941493  0.04669825     1.49000
C2142       C  0.85562929  0.03607043  0.00455790     0.92600
O2143       O  0.81383716  0.11995146  0.00198246    -0.80900
O2144       O  0.83140476  0.15633541  0.03895697    -0.74500
Al2145     Al  0.85532321  0.10283954  0.00920364     1.90100
O2146       O  0.78593768  0.11048820  0.02954567    -0.73600
O2147       O  0.84488702  0.12339844  0.07151095    -0.73400
O2148       O  0.79705622  0.07748093  0.06189505    -0.79100
O2149       O  0.86641892  0.07599360  0.07429698    -0.77300
O2150       O  0.84594910  0.09239902  0.03512666    -1.13400
O2151       O  0.90732229  0.07899149  0.04281593    -0.72600
C2152       C  0.91792302  0.08647791  0.02524494     0.98100
C2153       C  0.78752049  0.12024678  0.01145124     0.94500
Al2154     Al  0.81735515  0.11498132  0.04934567     1.55600
O2155       O  0.84259441  0.06181151  0.99858280    -0.77200
C2156       C  0.86028909  0.10335860  0.08176060     0.98700
C2157       C  0.85496195  0.16431730  0.02779239     0.93600
O2158       O  0.86972427  0.14373114  0.01716864    -0.82500
O2159       O  0.60404504  0.40362738  0.01092251    -0.82000
C2160       C  0.70104515  0.44780853  0.05777919     0.97400
O2161       O  0.67144472  0.45586488  0.05867461    -0.71100
O2162       O  0.62611639  0.46625143  0.02994389    -0.74700
Al2163     Al  0.63185759  0.43453677  0.05046873     1.49000
C2164       C  0.63394248  0.46947709  0.01145227     0.92600
O2165       O  0.69180984  0.40401739  0.99977987    -0.80900
O2166       O  0.65973356  0.34442845  0.04079143    -0.74500
Al2167     Al  0.64834833  0.40365069  0.00810504     1.90100
O2168       O  0.71024967  0.37322998  0.02350386    -0.73600
O2169       O  0.66962861  0.37976352  0.07346413    -0.73400
O2170       O  0.70958011  0.41923954  0.05287622    -0.79100
O2171       O  0.62878341  0.41073141  0.07557602    -0.77300
O2172       O  0.65468021  0.40685160  0.03513987    -1.13400
O2173       O  0.59097844  0.41550969  0.04280638    -0.72600
C2174       C  0.58319053  0.40683469  0.02471928     0.98100
C2175       C  0.71270582  0.38516183  0.00604216     0.94500
Al2176     Al  0.68435067  0.38193835  0.04658991     1.55600
O2177       O  0.64953439  0.44792378  0.00248337    -0.77200
C2178       C  0.64669176  0.39030286  0.08354198     0.98700
C2179       C  0.64627316  0.33790570  0.02378963     0.93600
O2180       O  0.64541359  0.35806071  0.00927833    -0.82500
O2181       O  0.85264552  0.36347438  0.98582373    -0.82000
C2182       C  0.95121058  0.30034800  0.94336466     0.97400
O2183       O  0.92176246  0.29299044  0.94211881    -0.71100
O2184       O  0.88900894  0.28224481  0.97547303    -0.74700
Al2185     Al  0.88310685  0.31149982  0.95369946     1.49000
C2186       C  0.88558344  0.28631994  0.99445260     0.92600
O2187       O  0.94023462  0.35065135  0.00050473    -0.80900
O2188       O  0.90691099  0.40565233  0.95413393    -0.74500
Al2189     Al  0.89620210  0.35561503  0.99170644     1.90100
O2190       O  0.95835189  0.37761650  0.97419602    -0.73600
O2191       O  0.91519844  0.36160001  0.92442393    -0.73400
O2192       O  0.95945848  0.32906073  0.94772549    -0.79100
O2193       O  0.87188495  0.33460039  0.92961235    -0.77300
O2194       O  0.90407284  0.34394053  0.96561183    -1.13400
O2195       O  0.84174625  0.32476292  0.96367164    -0.72600
C2196       C  0.83295118  0.34817831  0.97488133     0.98100
C2197       C  0.96165617  0.36823250  0.99249799     0.94500
Al2198     Al  0.93267197  0.36648214  0.95128326     1.55600
O2199       O  0.88658901  0.31399353  0.00222223    -0.77200
C2200       C  0.88865854  0.35183577  0.91813156     0.98700
C2201       C  0.89776309  0.41621213  0.97156620     0.93600
O2202       O  0.90291029  0.39991012  0.98745479    -0.82500
O2203       O  0.64460162  0.13926968  0.98897644    -0.82000
C2204       C  0.54887759  0.19991990  0.94372165     0.97400
O2205       O  0.57846282  0.20658497  0.94202112    -0.71100
O2206       O  0.60839577  0.21762304  0.97618480    -0.74700
Al2207     Al  0.61636356  0.18819213  0.95493896     1.49000
C2208       C  0.60911364  0.21469465  0.99534814     0.92600
O2209       O  0.55697585  0.14900783  0.00080159    -0.80900
O2210       O  0.58975208  0.09493003  0.95449294    -0.74500
Al2211     Al  0.60107036  0.14533868  0.99294214     1.90100
O2212       O  0.53947924  0.12241235  0.97421271    -0.73600
O2213       O  0.58419588  0.14004276  0.92535161    -0.73400
O2214       O  0.54025547  0.17187647  0.94896269    -0.79100
O2215       O  0.62898477  0.16396844  0.93151618    -0.77300
O2216       O  0.59464785  0.15625997  0.96668791    -1.13400
O2217       O  0.65730732  0.17597523  0.96621251    -0.72600
C2218       C  0.66520649  0.15481124  0.97913539     0.98100
C2219       C  0.53626243  0.13096248  0.99267864     0.94500
Al2220     Al  0.56594358  0.13440625  0.95194738     1.55600
O2221       O  0.60788377  0.18751274  0.00358704    -0.77200
C2222       C  0.61131643  0.14882797  0.91938420     0.98700
C2223       C  0.59675762  0.08351969  0.97196621     0.93600
O2224       O  0.59704361  0.10089414  0.98791760    -0.82500
O2225       O  0.87029999  0.14104259  0.51171058    -0.82000
C2226       C  0.96485296  0.19785671  0.55588883     0.97400
O2227       O  0.93496973  0.20272170  0.55876515    -0.71100
O2228       O  0.89395031  0.20942946  0.52863331    -0.74700
Al2229     Al  0.89690595  0.17974916  0.54993949     1.49000
C2230       C  0.89997261  0.21092072  0.50976577     0.92600
O2231       O  0.95911951  0.14638690  0.50186282    -0.80900
O2232       O  0.92765495  0.09163882  0.54740045    -0.74500
Al2233     Al  0.91509727  0.14397937  0.50946843     1.90100
O2234       O  0.97696396  0.11688044  0.52644073    -0.73600
O2235       O  0.93946717  0.13662374  0.57719862    -0.73400
O2236       O  0.97572917  0.17007578  0.55095952    -0.79100
O2237       O  0.89208354  0.15602521  0.57472393    -0.77300
O2238       O  0.92092767  0.15182652  0.53616500    -1.13400
O2239       O  0.85712755  0.16044063  0.54208551    -0.72600
C2240       C  0.84961035  0.14733925  0.52521683     0.98100
C2241       C  0.98001927  0.12781821  0.50869357     0.94500
Al2242     Al  0.95194537  0.13087405  0.54928472     1.55600
O2243       O  0.91245842  0.18748971  0.50055834    -0.77200
C2244       C  0.91355701  0.14398410  0.58542307     0.98700
C2245       C  0.91554438  0.08170202  0.53050773     0.93600
O2246       O  0.91578168  0.09878814  0.51430888    -0.82500
O2247       O  0.90725659  0.38568887  0.48795795    -0.82000
C2248       C  0.80815872  0.44378539  0.44435286     0.97400
O2249       O  0.83731496  0.45161986  0.44295568    -0.71100
O2250       O  0.86455459  0.46610269  0.47756836    -0.74700
Al2251     Al  0.87508102  0.43638166  0.45650149     1.49000
C2252       C  0.87070945  0.46342216  0.49635734     0.92600
O2253       O  0.82139452  0.40005071  0.50422361    -0.80900
O2254       O  0.85113590  0.34079632  0.45911047    -0.74500
Al2255     Al  0.86460199  0.39390058  0.49483541     1.90100
O2256       O  0.80130685  0.37185768  0.47873444    -0.73600
O2257       O  0.84617138  0.38308854  0.42848663    -0.73400
O2258       O  0.80045116  0.41609383  0.45049057    -0.79100
O2259       O  0.88886084  0.41185746  0.43345221    -0.77300
O2260       O  0.85554568  0.40364541  0.46878447    -1.13400
O2261       O  0.91645997  0.42711226  0.46787157    -0.72600
C2262       C  0.92623726  0.40311353  0.47794899     0.98100
C2263       C  0.79917248  0.38287520  0.49687902     0.94500
Al2264     Al  0.82710807  0.37997843  0.45522813     1.55600
O2265       O  0.87448409  0.43614199  0.50413110    -0.77200
C2266       C  0.87244097  0.39391897  0.42206029     0.98700
C2267       C  0.85763633  0.33054188  0.47689097     0.93600
O2268       O  0.85813667  0.34936495  0.49206399    -0.82500
O2269       O  0.61639275  0.11065354  0.48718249    -0.82000
C2270       C  0.71370934  0.04762028  0.44379343     0.97400
O2271       O  0.68431338  0.04028986  0.44283005    -0.71100
O2272       O  0.65162070  0.02977521  0.47614844    -0.74700
Al2273     Al  0.64624247  0.05927037  0.45437063     1.49000
C2274       C  0.64839965  0.03364240  0.49516629     0.92600
O2275       O  0.70361139  0.09681176  0.50135852    -0.80900
O2276       O  0.67440201  0.15419738  0.45565564    -0.74500
Al2277     Al  0.65971223  0.10266023  0.49265573     1.90100
O2278       O  0.72294834  0.12297874  0.47513134    -0.73600
O2279       O  0.67965322  0.10925852  0.42540759    -0.73400
O2280       O  0.72222650  0.07592532  0.44849535    -0.79100
O2281       O  0.63605040  0.08211198  0.42993925    -0.77300
O2282       O  0.66747327  0.09155766  0.46642134    -1.13400
O2283       O  0.60510368  0.07286414  0.46441329    -0.72600
C2284       C  0.59649843  0.09531105  0.47643728     0.98100
C2285       C  0.72593656  0.11294474  0.49324039     0.94500
Al2286     Al  0.69702805  0.11354630  0.45233909     1.55600
O2287       O  0.64987296  0.06115967  0.50304066    -0.77200
C2288       C  0.65418601  0.09788860  0.41839218     0.98700
C2289       C  0.66814490  0.16532827  0.47344754     0.93600
O2290       O  0.66620195  0.14687595  0.48867095    -0.82500
O2291       O  0.66230288  0.34469146  0.51513233    -0.82000
C2292       C  0.56398484  0.29604270  0.55882234     0.97400
O2293       O  0.59221532  0.28846382  0.55398899    -0.71100
O2294       O  0.63979036  0.28822068  0.52808544    -0.74700
Al2295     Al  0.62847023  0.31486163  0.55101496     1.49000
C2296       C  0.62939801  0.28484134  0.50994541     0.92600
O2297       O  0.57672416  0.36003321  0.49959728    -0.80900
O2298       O  0.58604781  0.40616620  0.53681750    -0.74500
Al2299     Al  0.61804106  0.35070070  0.51046230     1.90100
O2300       O  0.54561007  0.35521297  0.52623594    -0.73600
O2301       O  0.59576593  0.37731771  0.57174184    -0.73400
O2302       O  0.55595120  0.32555568  0.56025941    -0.79100
O2303       O  0.62175470  0.33331045  0.57784500    -0.77300
O2304       O  0.60647078  0.34344296  0.53647294    -1.13400
O2305       O  0.66760370  0.33934750  0.54858686    -0.72600
C2306       C  0.67951847  0.34507531  0.53103697     0.98100
C2307       C  0.54927905  0.35868784  0.50730494     0.94500
Al2308     Al  0.57367937  0.36428655  0.54779290     1.55600
O2309       O  0.61241869  0.30668459  0.50211988    -0.77200
C2310       C  0.61014100  0.35953576  0.58410338     0.98700
C2311       C  0.60980771  0.41435834  0.52583700     0.93600
O2312       O  0.62564458  0.39376913  0.51594925    -0.82500
O2313       O  0.87255915  0.38638519  0.26175302    -0.82000
C2314       C  0.96216858  0.44312062  0.31130835     0.97400
O2315       O  0.93198962  0.44740234  0.31345264    -0.71100
O2316       O  0.89469557  0.45717648  0.28221335    -0.74700
Al2317     Al  0.89484301  0.42510128  0.30164830     1.49000
C2318       C  0.89983795  0.46043639  0.26347421     0.92600
O2319       O  0.96136100  0.39723171  0.25429992    -0.80900
O2320       O  0.92776559  0.33734775  0.29704572    -0.74500
Al2321     Al  0.91662791  0.39247073  0.26064491     1.90100
O2322       O  0.97711555  0.36718552  0.27927712    -0.73600
O2323       O  0.93428074  0.37997128  0.32925292    -0.73400
O2324       O  0.97341799  0.41597310  0.30577975    -0.79100
O2325       O  0.88704567  0.39817688  0.32432515    -0.77300
O2326       O  0.92027707  0.39859187  0.28781878    -1.13400
O2327       O  0.85575807  0.40710761  0.29098177    -0.72600
C2328       C  0.85038071  0.39281059  0.27413618     0.98100
C2329       C  0.98157403  0.37808428  0.26159275     0.94500
Al2330     Al  0.95027962  0.37714388  0.30160715     1.55600
O2331       O  0.91086562  0.43713961  0.25311549    -0.77200
C2332       C  0.90704300  0.38615974  0.33609471     0.98700
C2333       C  0.92054697  0.32765851  0.27898149     0.93600
O2334       O  0.92014110  0.34662314  0.26367257    -0.82500
O2335       O  0.61685029  0.33299648  0.23965850    -0.82000
C2336       C  0.71115611  0.29120276  0.18915001     0.97400
O2337       O  0.68525324  0.27997022  0.19619905    -0.71100
O2338       O  0.64186366  0.27626777  0.22584490    -0.74700
Al2339     Al  0.64693931  0.30282928  0.20184418     1.49000
C2340       C  0.65587749  0.27541173  0.24302203     0.92600
O2341       O  0.70433968  0.35382326  0.24830763    -0.80900
O2342       O  0.68018328  0.39963895  0.21097871    -0.74500
Al2343     Al  0.66155145  0.34192274  0.24111818     1.90100
O2344       O  0.72882390  0.35639125  0.21883223    -0.73600
O2345       O  0.66679331  0.36717198  0.17836652    -0.73400
O2346       O  0.71514709  0.32144410  0.18694982    -0.79100
O2347       O  0.64671791  0.31959113  0.17427998    -0.77300
O2348       O  0.66842663  0.33461041  0.21436501    -1.13400
O2349       O  0.60671177  0.32427241  0.20684846    -0.72600
C2350       C  0.59739036  0.33193859  0.22478983     0.98100
C2351       C  0.72937907  0.35841814  0.23801878     0.94500
Al2352     Al  0.69537964  0.35888534  0.19998032     1.55600
O2353       O  0.67159097  0.29929248  0.24928166    -0.77200
C2354       C  0.65266471  0.34710242  0.16735299     0.98700
C2355       C  0.65973110  0.40584100  0.22481070     0.93600
O2356       O  0.65015606  0.38421822  0.23669883    -0.82500
O2357       O  0.65665613  0.10584469  0.26375615    -0.82000
C2358       C  0.55803115  0.04517287  0.30759118     0.97400
O2359       O  0.58752119  0.03797750  0.30906603    -0.71100
O2360       O  0.61894764  0.02484533  0.27553522    -0.74700
Al2361     Al  0.62612473  0.05533717  0.29676176     1.49000
C2362       C  0.62313231  0.02771061  0.25654225     0.92600
O2363       O  0.56973816  0.08991914  0.24993372    -0.80900
O2364       O  0.60245610  0.14904636  0.29473023    -0.74500
Al2365     Al  0.61334997  0.09689087  0.25818329     1.90100
O2366       O  0.55085519  0.12045945  0.27472722    -0.73600
O2367       O  0.59345996  0.10605015  0.32523230    -0.73400
O2368       O  0.54974583  0.07324422  0.30204882    -0.79100
O2369       O  0.63752678  0.07977905  0.32049870    -0.77300
O2370       O  0.60537025  0.08701591  0.28439497    -1.13400
O2371       O  0.66776805  0.06773412  0.28603809    -0.72600
C2372       C  0.67655440  0.09047600  0.27435175     0.98100
C2373       C  0.54817441  0.10836623  0.25695250     0.94500
Al2374     Al  0.57648702  0.11030425  0.29811984     1.55600
O2375       O  0.62379931  0.05495999  0.24843855    -0.77200
C2376       C  0.61946329  0.09575426  0.33210045     0.98700
C2377       C  0.61137192  0.15851899  0.27704945     0.93600
O2378       O  0.60594276  0.14132224  0.26146519    -0.82500
O2379       O  0.91067829  0.15297957  0.23784568    -0.82000
C2380       C  0.81383828  0.19790523  0.19172692     0.97400
O2381       O  0.84139780  0.20650970  0.19737415    -0.71100
O2382       O  0.88811004  0.20800195  0.22409849    -0.74700
Al2383     Al  0.87801292  0.18104500  0.20104564     1.49000
C2384       C  0.87675958  0.21115869  0.24203799     0.92600
O2385       O  0.82343369  0.13502411  0.25112305    -0.80900
O2386       O  0.83723840  0.08877995  0.21494739    -0.74500
Al2387     Al  0.86565627  0.14599186  0.24144533     1.90100
O2388       O  0.79404495  0.13706813  0.22355023    -0.73600
O2389       O  0.84987247  0.11716738  0.18008757    -0.73400
O2390       O  0.80700940  0.16807282  0.18974932    -0.79100
O2391       O  0.87340340  0.16246243  0.17411815    -0.77300
O2392       O  0.85574064  0.15214711  0.21519126    -1.13400
O2393       O  0.91688378  0.15697592  0.20430018    -0.72600
C2394       C  0.92815739  0.15124116  0.22197171     0.98100
C2395       C  0.79670532  0.13226243  0.24245093     0.94500
Al2396     Al  0.82481834  0.12978662  0.20298548     1.55600
O2397       O  0.85826885  0.18992311  0.24914494    -0.77200
C2398       C  0.86438435  0.13521942  0.16793891     0.98700
C2399       C  0.85896466  0.08193918  0.22776302     0.93600
O2400       O  0.87484901  0.10340469  0.23668553    -0.82500
C2401       C  0.50221938  0.09564184  0.23355856    -0.12500
C2402       C  0.52039973  0.11834204  0.24445680     0.04500
C2403       C  0.50992894  0.15070131  0.24511598    -0.07800
C2404       C  0.98015847  0.16584409  0.23638606    -0.08500
C2405       C  0.96209964  0.14367021  0.22515735    -0.03100
C2406       C  0.97390370  0.11221046  0.22226012     0.03800
N2407       N  0.95552305  0.08887322  0.21128142     0.66300
H2408       H  0.50987420  0.07076514  0.23290239     0.15200
H2409       H  0.97111385  0.18997925  0.23889394     0.14900
N2410       N  0.52807753  0.17502239  0.25540864     0.74000
O2411       O  0.95109200  0.09191621  0.19222216    -0.39500
O2412       O  0.94142431  0.06679635  0.22092989    -0.39400
O2413       O  0.54702393  0.19232007  0.24520773    -0.40100
O2414       O  0.52044942  0.18342034  0.27342249    -0.40200
C2415       C  0.75306576  0.13822349  0.26867604    -0.12500
C2416       C  0.76864372  0.11970080  0.25367134     0.04500
C2417       C  0.75606976  0.08920780  0.24838796    -0.07800
C2418       C  0.72745800  0.07860013  0.25716327    -0.08500
C2419       C  0.71066933  0.09793220  0.27109883    -0.03100
C2420       C  0.72413211  0.12760066  0.27739585     0.03800
N2421       N  0.70869917  0.14715056  0.29257649     0.66300
H2422       H  0.76280003  0.16136986  0.27313196     0.15200
H2423       H  0.71720421  0.05604056  0.25197291     0.14900
N2424       N  0.77149647  0.06912517  0.23349680     0.74000
O2425       O  0.70948527  0.13858649  0.31113348    -0.39500
O2426       O  0.70127183  0.17575389  0.28835700    -0.39400
O2427       O  0.78743866  0.04521177  0.23946279    -0.40100
O2428       O  0.76306549  0.07065610  0.21493293    -0.40200
C2429       C  0.76812563  0.27762611  0.19389279    -0.12500
C2430       C  0.73849680  0.26894978  0.18565197     0.04500
C2431       C  0.73483245  0.23763908  0.17741877    -0.07800
C2432       C  0.75983104  0.21512567  0.17893826    -0.08500
C2433       C  0.78901327  0.22325365  0.18825437    -0.03100
C2434       C  0.79315470  0.25539521  0.19531597     0.03800
N2435       N  0.82175386  0.26551226  0.20537601     0.66300
H2436       H  0.77134142  0.30140623  0.20050098     0.15200
H2437       H  0.75626933  0.19109227  0.17284733     0.14900
N2438       N  0.70662605  0.22885555  0.16645958     0.74000
O2439       O  0.84231943  0.28136709  0.19551401    -0.39500
O2440       O  0.82327972  0.26458488  0.22471605    -0.39400
O2441       O  0.70426125  0.23673456  0.14784682    -0.40100
O2442       O  0.68921872  0.20652099  0.17318045    -0.40200
C2443       C  0.64998318  0.18825912  0.25606371    -0.12500
C2444       C  0.62898209  0.18877561  0.27297289     0.04500
C2445       C  0.62270574  0.21835827  0.28277754    -0.07800
C2446       C  0.63470187  0.24702374  0.27411571    -0.08500
C2447       C  0.65248414  0.24625522  0.25569082    -0.03100
C2448       C  0.66145424  0.21645797  0.24738760     0.02200
N2449       N  0.67999427  0.21449416  0.22900619     0.66300
H2450       H  0.65612326  0.16572485  0.24860402     0.15200
H2451       H  0.62827651  0.26992396  0.28092127     0.14900
N2452       N  0.60199361  0.21990379  0.30019667     0.74000
O2453       O  0.71001847  0.21323932  0.23015961    -0.39500
O2454       O  0.66643064  0.20689976  0.21241066    -0.39400
O2455       O  0.61278854  0.21375784  0.31781885    -0.40100
O2456       O  0.57226751  0.22233052  0.29761405    -0.40200
C2457       C  0.61845650  0.44042875  0.24050180    -0.12500
C2458       C  0.64616029  0.43841286  0.22826056     0.04500
C2459       C  0.66118088  0.46720698  0.22211734    -0.07800
C2460       C  0.65943184  0.99501921  0.23472680    -0.08500
C2461       C  0.62939433  0.99878655  0.24404141    -0.03100
C2462       C  0.60818192  0.46958487  0.24873836     0.03800
N2463       N  0.57642097  0.97658611  0.25224475     0.66300
H2464       H  0.60551497  0.41889680  0.24479111     0.15200
H2465       H  0.67623761  0.01483518  0.23486124     0.14900
N2466       N  0.68856800  0.46689062  0.20903706     0.74000
O2467       O  0.55390612  0.47385699  0.25571211    -0.39500
O2468       O  0.56748859  0.95959297  0.26718931    -0.39400
O2469       O  0.68479149  0.46868957  0.18985304    -0.40100
O2470       O  0.71559072  0.47299053  0.21660091    -0.40200
C2471       C  0.97389240  0.00319597  0.30721054    -0.12500
C2472       C  0.98455728  0.47100089  0.31367951     0.04500
C2473       C  0.52281268  0.46108049  0.31707356    -0.07800
C2474       C  0.54389294  0.48742693  0.31634087    -0.08500
C2475       C  0.53330750  0.01949282  0.31152925    -0.03100
C2476       C  0.99606310  0.02868684  0.30570274     0.03800
N2477       N  0.98513058  0.05888993  0.29809571     0.66300
H2478       H  0.94957980  0.00730554  0.30252628     0.15200
H2479       H  0.56886271  0.48323005  0.31964241     0.14900
N2480       N  0.53505090  0.43015095  0.32235083     0.74000
O2481       O  0.98395900  0.06347937  0.27896478    -0.39500
O2482       O  0.47741585  0.07294008  0.32265799    -0.39400
O2483       O  0.54859594  0.41312262  0.30879434    -0.40100
O2484       O  0.53765804  0.42262425  0.34101861    -0.40200
C2485       C  0.52281932  0.33567245  0.25595803    -0.12500
C2486       C  0.00982994  0.36572617  0.24994806     0.04500
C2487       C  0.01980168  0.37658404  0.23039256    -0.07800
C2488       C  0.54718270  0.36501960  0.22098829    -0.08500
C2489       C  0.56353875  0.33873260  0.22968463    -0.03100
C2490       C  0.55016778  0.32340359  0.24680961     0.03800
N2491       N  0.56509630  0.29599402  0.25582994     0.66300
H2492       H  0.51434448  0.32377950  0.26966873     0.15200
H2493       H  0.55758931  0.37758604  0.20807115     0.14900
N2494       N  0.00238913  0.40097183  0.21990564     0.74000
O2495       O  0.57509767  0.29778642  0.27406271    -0.39500
O2496       O  0.56189945  0.26875173  0.24744486    -0.39400
O2497       O  0.00713247  0.43021482  0.22417344    -0.40100
O2498       O  0.97998969  0.39320302  0.20794777    -0.40200
C2499       C  0.81034004  0.39627503  0.24719502    -0.12500
C2500       C  0.81778897  0.38579526  0.26697400     0.04500
C2501       C  0.79550962  0.36690146  0.27777705    -0.07800
C2502       C  0.76640034  0.35845207  0.26838512    -0.08500
C2503       C  0.75961623  0.36798750  0.24815209    -0.03100
C2504       C  0.78191680  0.38755873  0.23771391     0.03800
N2505       N  0.77597733  0.39944148  0.21752670     0.66300
H2506       H  0.82716211  0.41107258  0.23878043     0.15200
H2507       H  0.74961922  0.34345174  0.27663443     0.14900
N2508       N  0.80280823  0.35441389  0.29758233     0.74000
O2509       O  0.76514765  0.42751909  0.21544081    -0.39500
O2510       O  0.78846307  0.38539335  0.20226783    -0.39400
O2511       O  0.78701824  0.36404429  0.31294626    -0.40100
O2512       O  0.81874063  0.32877235  0.29887088    -0.40200
C2513       C  0.88449175  0.99458159  0.23200419    -0.12500
C2514       C  0.89033990  0.49166160  0.25405793     0.04500
C2515       C  0.87937985  0.01954781  0.26576267    -0.07800
C2516       C  0.86718818  0.04679888  0.25659234    -0.08500
C2517       C  0.86466439  0.04930290  0.23531779    -0.03100
C2518       C  0.87294190  0.02291058  0.22288778     0.03800
N2519       N  0.87176736  0.02531294  0.20112151     0.66300
H2520       H  0.89314167  0.47447561  0.22263885     0.15200
H2521       H  0.86088189  0.06709656  0.26635537     0.14900
N2522       N  0.88205650  0.51750156  0.28856655     0.74000
O2523       O  0.89438519  0.03879340  0.19170955    -0.39500
O2524       O  0.84634096  0.01842216  0.19174974    -0.39400
O2525       O  0.90042524  0.53664125  0.29790421    -0.40100
O2526       O  0.85855184  0.50589602  0.29815751    -0.40200
C2527       C  0.91923655  0.25005329  0.25008207    -0.12500
C2528       C  0.88867252  0.23831544  0.25476184     0.04500
C2529       C  0.87139225  0.25288440  0.27099518    -0.07800
C2530       C  0.88356669  0.28077064  0.28059914    -0.08500
C2531       C  0.91303560  0.29374943  0.27453733    -0.03100
C2532       C  0.93149334  0.27720475  0.25984666     0.03800
N2533       N  0.96258367  0.28823451  0.25425401     0.66300
H2534       H  0.93372166  0.23841301  0.23839529     0.15200
H2535       H  0.86919390  0.29332950  0.29190518     0.14900
N2536       N  0.84090388  0.24090749  0.27710471     0.74000
O2537       O  0.98651052  0.27660194  0.26329125    -0.39500
O2538       O  0.96645391  0.30244127  0.23735398    -0.39400
O2539       O  0.83877855  0.22351597  0.29286604    -0.40100
O2540       O  0.81594946  0.25289433  0.26952068    -0.40200
C2541       C  0.66055783  0.09956897  0.35990235    -0.12500
C2542       C  0.62831237  0.10102763  0.35408749     0.04500
C2543       C  0.60498347  0.10478715  0.36969650    -0.07800
C2544       C  0.61394775  0.10457726  0.39047736    -0.08500
C2545       C  0.64603862  0.10180510  0.39628054    -0.03100
C2546       C  0.66959009  0.10034719  0.38068220     0.03800
N2547       N  0.70266634  0.09743540  0.38564046     0.66300
H2548       H  0.67891748  0.09700052  0.34825223     0.15200
H2549       H  0.59557058  0.10612904  0.40218961     0.14900
N2550       N  0.57186302  0.10720275  0.36482572     0.74000
O2551       O  0.71475853  0.06988078  0.38783020    -0.39500
O2552       O  0.72072601  0.12154990  0.38388652    -0.39400
O2553       O  0.55437680  0.08256200  0.36584230    -0.40100
O2554       O  0.55917294  0.13459839  0.36328210    -0.40200
C2555       C  0.63949454  0.21808004  0.46906841    -0.12500
C2556       C  0.66383794  0.19989228  0.47823465     0.04500
C2557       C  0.67796321  0.21160702  0.49642453    -0.07800
C2558       C  0.66562807  0.23855051  0.50625879    -0.08500
C2559       C  0.64015613  0.25604947  0.49803552    -0.03100
C2560       C  0.62745476  0.24606557  0.47887932     0.03800
N2561       N  0.60050780  0.26201650  0.47023766     0.66300
H2562       H  0.62790281  0.20907590  0.45533841     0.15200
H2563       H  0.67627511  0.24555541  0.52075054     0.14900
N2564       N  0.70426969  0.19540205  0.50573841     0.74000
O2565       O  0.57289309  0.25580688  0.47689757    -0.39500
O2566       O  0.60368826  0.27797024  0.45393689    -0.39400
O2567       O  0.73217381  0.20496677  0.50183332    -0.40100
O2568       O  0.69950951  0.17849730  0.52149456    -0.40200
C2569       C  0.60968287  0.50328738  0.51338913    -0.12500
C2570       C  0.64064275  0.00562457  0.50798207     0.04500
C2571       C  0.66270017  0.98064266  0.51050150    -0.07800
C2572       C  0.65293161  0.45350718  0.51972096    -0.08500
C2573       C  0.62024309  0.44814823  0.52351438    -0.03100
C2574       C  0.59871700  0.47395013  0.52136784     0.03800
N2575       N  0.56541825  0.46989777  0.52530541     0.66300
H2576       H  0.59267559  0.52230670  0.51036082     0.15200
H2577       H  0.67004058  0.43424293  0.52183655     0.14900
N2578       N  0.69518112  0.98446259  0.50430379     0.74000
O2579       O  0.55396871  0.47898155  0.54232018    -0.39500
O2580       O  0.54683485  0.46333168  0.51064872    -0.39400
O2581       O  0.71522350  0.99565132  0.51688142    -0.40100
O2582       O  0.70475809  0.97184638  0.48773890    -0.40200
C2583       C  0.85963903  0.37949348  0.38580900    -0.12500
C2584       C  0.88288652  0.38714492  0.40054959     0.04500
C2585       C  0.91496074  0.39044064  0.39399530    -0.07800
C2586       C  0.92275152  0.38747371  0.37304896    -0.08500
C2587       C  0.89905033  0.38206288  0.35820941    -0.03100
C2588       C  0.86731584  0.37730331  0.36488249     0.03800
N2589       N  0.84231199  0.37113110  0.35053989     0.66300
H2590       H  0.83492053  0.37666905  0.39038597     0.15200
H2591       H  0.94723660  0.39136998  0.36827503     0.14900
N2592       N  0.93984449  0.39763873  0.40826778     0.74000
O2593       O  0.83558900  0.34246923  0.34578518    -0.39500
O2594       O  0.82307532  0.39336511  0.34611189    -0.39400
O2595       O  0.95769692  0.37532212  0.41450663    -0.40100
O2596       O  0.94803672  0.42651145  0.41116811    -0.40200
C2597       C  0.72798169  0.48734434  0.44137154    -0.12500
C2598       C  0.73829013  0.02192671  0.44073071     0.04500
C2599       C  0.77124067  0.02879935  0.43896203    -0.07800
C2600       C  0.79374955  0.00379111  0.43950251    -0.08500
C2601       C  0.78311787  0.46838319  0.43999159    -0.03100
C2602       C  0.75005989  0.46198224  0.44199097     0.03800
N2603       N  0.73837231  0.43008661  0.44515250     0.66300
H2604       H  0.70300435  0.48198462  0.44400746     0.15200
H2605       H  0.81882731  0.00993969  0.43863753     0.14900
N2606       N  0.78242293  0.06105513  0.43674261     0.74000
O2607       O  0.73351569  0.42021886  0.46318863    -0.39500
O2608       O  0.72705677  0.41449639  0.43016263    -0.39400
O2609       O  0.79278520  0.07618879  0.45220614    -0.40100
O2610       O  0.78702948  0.07222389  0.41900151    -0.40200
C2611       C  0.75618406  0.34399455  0.50254047    -0.12500
C2612       C  0.77120820  0.37225998  0.50922213     0.04500
C2613       C  0.75871425  0.38835776  0.52669115    -0.07800
C2614       C  0.72962507  0.37779021  0.53547451    -0.08500
C2615       C  0.71387735  0.35052339  0.52755254    -0.03100
C2616       C  0.72857760  0.33275127  0.51173476     0.03800
N2617       N  0.71495276  0.30355977  0.50414174     0.66300
H2618       H  0.76561458  0.33035660  0.48965362     0.15200
H2619       H  0.71850419  0.39188448  0.54757370     0.14900
N2620       N  0.77412428  0.41616335  0.53494206     0.74000
O2621       O  0.69946186  0.30397668  0.48754477    -0.39500
O2622       O  0.72612608  0.27725345  0.51043424    -0.39400
O2623       O  0.76519645  0.44377655  0.52946310    -0.40100
O2624       O  0.79231055  0.41331581  0.55024359    -0.40200
C2625       C  0.96938235  0.36270348  0.47786122    -0.12500
C2626       C  0.96030819  0.39523362  0.47890507     0.04500
C2627       C  0.98307040  0.41867221  0.48417740    -0.07800
C2628       C  0.01307338  0.40890971  0.49097662    -0.08500
C2629       C  0.52065943  0.36372193  0.49475037    -0.03100
C2630       C  0.49348473  0.34466737  0.49799707     0.03800
N2631       N  0.49530469  0.31538061  0.50931822     0.66300
H2632       H  0.95210710  0.34455016  0.47341803     0.15200
H2633       H  0.02953623  0.42688130  0.49680938     0.14900
N2634       N  0.97491737  0.45200985  0.48510876     0.74000
O2635       O  0.48551618  0.31479278  0.52765153    -0.39500
O2636       O  0.50034002  0.28925285  0.49990911    -0.39400
O2637       O  0.96696553  0.46444915  0.50208381    -0.40100
O2638       O  0.98194470  0.46999748  0.47022692    -0.40200
C2639       C  0.50795659  0.27790590  0.56661139    -0.12500
C2640       C  0.53975548  0.26991621  0.56183283     0.04500
C2641       C  0.54711409  0.23704432  0.55823872    -0.07800
C2642       C  0.52301611  0.21372867  0.55870927    -0.08500
C2643       C  0.98748746  0.22543661  0.55771871    -0.03100
C2644       C  0.97841329  0.25731570  0.55292425     0.03800
N2645       N  0.94669733  0.26477998  0.54652221     0.66300
H2646       H  0.50152560  0.30276020  0.56951014     0.15200
H2647       H  0.02702557  0.19535322  0.56652686     0.14900
N2648       N  0.57868875  0.22674080  0.55309003     0.74000
O2649       O  0.92666160  0.27448827  0.55966172    -0.39500
O2650       O  0.94129983  0.26932654  0.52770363    -0.39400
O2651       O  0.59592644  0.21419598  0.56673671    -0.40100
O2652       O  0.58647284  0.22368051  0.53443718    -0.40200
C2653       C  0.54220067  0.07925488  0.48685064    -0.12500
C2654       C  0.56251901  0.10307012  0.47927555     0.04500
C2655       C  0.55205181  0.13529195  0.47898499    -0.07800
C2656       C  0.52272415  0.14369102  0.48794202    -0.08500
C2657       C  0.00815045  0.11846277  0.49623574    -0.03100
C2658       C  0.01996668  0.08661315  0.49653387     0.03800
N2659       N  0.00385122  0.06194407  0.50763069     0.66300
H2660       H  0.55009417  0.05443482  0.48725590     0.15200
H2661       H  0.51570010  0.16876069  0.48867414     0.14900
N2662       N  0.57205425  0.15995343  0.47086813     0.74000
O2663       O  0.01398732  0.05423816  0.52515830    -0.39500
O2664       O  0.98511966  0.04326247  0.49821715    -0.39400
O2665       O  0.58111853  0.15875213  0.45237058    -0.40100
O2666       O  0.58226570  0.18189448  0.48257134    -0.40200
C2667       C  0.77393584  0.14706906  0.49487247    -0.12500
C2668       C  0.75580428  0.12256823  0.50410071     0.04500
C2669       C  0.76745757  0.10861819  0.52236628    -0.07800
C2670       C  0.79768957  0.11783297  0.53001923    -0.08500
C2671       C  0.81603874  0.14120571  0.51984859    -0.03100
C2672       C  0.80334343  0.15650831  0.50253934     0.03800
N2673       N  0.82008212  0.18189455  0.49241857     0.66300
H2674       H  0.76553471  0.15913594  0.48120337     0.15200
H2675       H  0.80729559  0.10593612  0.54341369     0.14900
N2676       N  0.74968173  0.08444099  0.53283471     0.74000
O2677       O  0.83950172  0.17507435  0.47820330    -0.39500
O2678       O  0.80922457  0.21013305  0.49370127    -0.39400
O2679       O  0.75719175  0.05526372  0.53053228    -0.40100
O2680       O  0.73102218  0.09247996  0.54721404    -0.40200
C2681       C  0.90077508  0.49203782  0.52376544    -0.12500
C2682       C  0.87645404  0.49248672  0.50889302     0.04500
C2683       C  0.86110950  0.02089318  0.50753779    -0.07800
C2684       C  0.87186744  0.04949496  0.51636145    -0.08500
C2685       C  0.89959773  0.05025472  0.52847161    -0.03100
C2686       C  0.91414718  0.02106631  0.53401766     0.03800
N2687       N  0.94136997  0.02046283  0.54715218     0.66300
H2688       H  0.91234052  0.46957147  0.52763164     0.15200
H2689       H  0.85983494  0.07170780  0.51242699     0.14900
N2690       N  0.83534851  0.52325345  0.49021118     0.74000
O2691       O  0.96787369  0.01131434  0.53999864    -0.39500
O2692       O  0.93721254  0.02078948  0.56635469    -0.39400
O2693       O  0.80705147  0.52221504  0.49682838    -0.40100
O2694       O  0.83758983  0.03136381  0.47598087    -0.40200
C2695       C  0.86187089  0.25502306  0.50713362    -0.12500
C2696       C  0.88860845  0.23966457  0.49870701     0.04500
C2697       C  0.90210329  0.25184012  0.48042115    -0.07800
C2698       C  0.88999899  0.28051673  0.47194631    -0.08500
C2699       C  0.86426776  0.29660091  0.48135067    -0.03100
C2700       C  0.84956575  0.28280930  0.49867085     0.03800
N2701       N  0.82229072  0.29708249  0.50829279     0.66300
H2702       H  0.85018762  0.24548509  0.52067908     0.15200
H2703       H  0.90193025  0.29122417  0.45887838     0.14900
N2704       N  0.92924077  0.23683434  0.47117609     0.74000
O2705       O  0.79584219  0.28281809  0.50675959    -0.39500
O2706       O  0.82638593  0.31662580  0.52296087    -0.39400
O2707       O  0.92552516  0.21872404  0.45574826    -0.40100
O2708       O  0.95688405  0.24630045  0.47589633    -0.40200
C2709       C  0.99333347  0.21807580  0.94211524    -0.12500
C2710       C  0.52367945  0.22531305  0.94053229     0.04500
C2711       C  0.53081838  0.25837430  0.93789168    -0.07800
C2712       C  0.50619870  0.28154884  0.93808093    -0.08500
C2713       C  0.97628544  0.27451368  0.94060347    -0.03100
C2714       C  0.96895760  0.24134344  0.94247468     0.03800
N2715       N  0.93706003  0.23068724  0.94618326     0.66300
H2716       H  0.98664209  0.19315307  0.94427846     0.15200
H2717       H  0.51258471  0.30669597  0.93670366     0.14900
N2718       N  0.56296551  0.26915461  0.93551176     0.74000
O2719       O  0.92027750  0.22101577  0.93131642    -0.39500
O2720       O  0.92846098  0.22429491  0.96429534    -0.39400
O2721       O  0.57377807  0.27429132  0.91772448    -0.40100
O2722       O  0.57797858  0.27968339  0.95091713    -0.40200
C2723       C  0.63238689  0.38607822  0.14141506    -0.12500
C2724       C  0.64533818  0.35571258  0.14583339     0.04500
C2725       C  0.65531285  0.33583403  0.12946731    -0.07800
C2726       C  0.65349092  0.34696322  0.10924931    -0.08500
C2727       C  0.64201142  0.37795143  0.10477119    -0.03100
C2728       C  0.63028945  0.39716091  0.12107520     0.03800
N2729       N  0.61839738  0.42879239  0.11746453     0.66300
H2730       H  0.62487396  0.40173137  0.15389183     0.15200
H2731       H  0.66272055  0.33177016  0.09701595     0.14900
N2732       N  0.67077428  0.30584274  0.13325123     0.74000
O2733       O  0.58875471  0.43307360  0.11554297    -0.39500
O2734       O  0.63640653  0.45272213  0.12028197    -0.39400
O2735       O  0.65638288  0.27990300  0.12928657    -0.40100
O2736       O  0.70040076  0.30539022  0.13666827    -0.40200
C2737       C  0.52770138  0.38447758  0.03119860    -0.12500
C2738       C  0.54977546  0.40010529  0.01827033     0.04500
C2739       C  0.54121547  0.40527904  0.99752345    -0.07800
C2740       C  0.51261255  0.39347852  0.98999220    -0.08500
C2741       C  0.99037413  0.38062034  0.00377834    -0.03100
C2742       C  0.49834558  0.37262875  0.02337773     0.03800
N2743       N  0.98227116  0.34795111  0.03496939     0.66300
H2744       H  0.53385659  0.38007570  0.04708718     0.15200
H2745       H  0.50788491  0.39762418  0.97386692     0.14900
N2746       N  0.56167091  0.42183649  0.98340304     0.74000
O2747       O  0.98926054  0.31851531  0.03347776    -0.39500
O2748       O  0.96420414  0.35736475  0.04932382    -0.39400
O2749       O  0.55496316  0.45034203  0.97850035    -0.40100
O2750       O  0.57946941  0.40559669  0.97160982    -0.40200
C2751       C  0.75955580  0.39867776  0.98400667    -0.12500
C2752       C  0.73980105  0.37559179  0.99302194     0.04500
C2753       C  0.74757529  0.34274760  0.99092864    -0.07800
C2754       C  0.77692950  0.33416757  0.98256026    -0.08500
C2755       C  0.79891221  0.35720305  0.97631659    -0.03100
C2756       C  0.78884642  0.38973439  0.97497056     0.03800
N2757       N  0.80719210  0.41304293  0.96369210     0.66300
H2758       H  0.75242250  0.42387314  0.98452618     0.15200
H2759       H  0.78347906  0.30787552  0.98162437     0.14900
N2760       N  0.72581415  0.31837082  0.99752591     0.74000
O2761       O  0.82649655  0.40392432  0.94991530    -0.39500
O2762       O  0.80016079  0.44252912  0.96482141    -0.39400
O2763       O  0.69947196  0.31474453  0.98845702    -0.40100
O2764       O  0.73241192  0.30110725  0.01282134    -0.40200
C2765       C  0.59532150  0.27087848  0.00192581    -0.12500
C2766       C  0.61298062  0.24401659  0.00773212     0.04500
C2767       C  0.63871954  0.24789066  0.02146550    -0.07800
C2768       C  0.64769909  0.27879771  0.02784620    -0.08500
C2769       C  0.63216195  0.30594558  0.02015128    -0.03100
C2770       C  0.60492706  0.30173657  0.00758731     0.03800
N2771       N  0.58738708  0.32827748  0.99957044     0.66300
H2772       H  0.57538456  0.26805843  0.99148785     0.15200
H2773       H  0.66858978  0.28163547  0.03747676     0.14900
N2774       N  0.65874594  0.22148431  0.02674920     0.74000
O2775       O  0.59719333  0.34139760  0.98330780    -0.39500
O2776       O  0.55824918  0.33073833  0.00419948    -0.39400
O2777       O  0.68731207  0.22138641  0.02057051    -0.40100
O2778       O  0.65078296  0.20350025  0.04143839    -0.40200
C2779       C  0.58201959  0.03435154  0.98916944    -0.12500
C2780       C  0.60294432  0.04938948  0.97544591     0.04500
C2781       C  0.63362656  0.03644768  0.97235932    -0.07800
C2782       C  0.64335320  0.00960938  0.98369609    -0.08500
C2783       C  0.62238491  0.49735475  0.99965694    -0.03100
C2784       C  0.59176212  0.51042245  0.00337752     0.03800
N2785       N  0.57179876  0.49891866  0.01963326     0.66300
H2786       H  0.55875300  0.04484812  0.99217313     0.15200
H2787       H  0.66387256  0.49910530  0.97993043     0.14900
N2788       N  0.65646649  0.05273271  0.95990810     0.74000
O2789       O  0.57533728  0.51018484  0.03752381    -0.39500
O2790       O  0.54654502  0.48381773  0.01535934    -0.39400
O2791       O  0.67762059  0.06968872  0.96845921    -0.40100
O2792       O  0.65969678  0.04476775  0.94128787    -0.40200
C2793       C  0.86535965  0.08655001  0.11786361    -0.12500
C2794       C  0.86817889  0.11099989  0.10336602     0.04500
C2795       C  0.87384325  0.14273048  0.11022714    -0.07800
C2796       C  0.87438889  0.14965468  0.13134065    -0.08500
C2797       C  0.86876164  0.12554544  0.14599729    -0.03100
C2798       C  0.86507523  0.09339717  0.13893431     0.03800
N2799       N  0.85990999  0.06720876  0.15261148     0.66300
H2800       H  0.86094996  0.06205248  0.11282192     0.15200
H2801       H  0.87780993  0.17438291  0.13619818     0.14900
N2802       N  0.87890406  0.16822342  0.09596007     0.74000
O2803       O  0.83211580  0.06262613  0.15949690    -0.39500
O2804       O  0.87894778  0.04371864  0.15177830    -0.39400
O2805       O  0.85658445  0.18768987  0.09224523    -0.40100
O2806       O  0.90696594  0.17499331  0.09041370    -0.40200
C2807       C  0.78194281  0.48950450  0.06619100    -0.12500
C2808       C  0.77380185  0.02393827  0.06216620     0.04500
C2809       C  0.74116613  0.03211063  0.05997654    -0.07800
C2810       C  0.71743341  0.00796284  0.05985973    -0.08500
C2811       C  0.72626532  0.47296620  0.06133456    -0.03100
C2812       C  0.75846988  0.46524362  0.06571341     0.03800
N2813       N  0.76796811  0.43287255  0.06966165     0.66300
H2814       H  0.80644578  0.48273077  0.06917462     0.15200
H2815       H  0.69286564  0.01500622  0.05735183     0.14900
N2816       N  0.73164296  0.06457163  0.05658248     0.74000
O2817       O  0.78015844  0.41625253  0.05538274    -0.39500
O2818       O  0.77057879  0.42355517  0.08799290    -0.39400
O2819       O  0.72343839  0.07299851  0.03876918    -0.40100
O2820       O  0.72385381  0.08183941  0.07178727    -0.40200
C2821       C  0.70410106  0.15260569  0.00659824    -0.12500
C2822       C  0.69847334  0.15002846  0.98553752     0.04500
C2823       C  0.72353470  0.14028590  0.97243943    -0.07800
C2824       C  0.75308580  0.13130429  0.98085085    -0.08500
C2825       C  0.75811945  0.13303290  0.00212224    -0.03100
C2826       C  0.73383315  0.14592387  0.01483268     0.03800
N2827       N  0.73937700  0.15399319  0.03593504     0.66300
H2828       H  0.68510349  0.16018796  0.01684083     0.15200
H2829       H  0.77170850  0.12215112  0.97082789     0.14900
N2830       N  0.71915695  0.13792007  0.95083226     0.74000
O2831       O  0.75615768  0.17832914  0.04017768    -0.39500
O2832       O  0.72179082  0.14212796  0.04969968    -0.39400
O2833       O  0.73166112  0.15912325  0.93961476    -0.40100
O2834       O  0.71227591  0.11091895  0.94310342    -0.40200
C2835       C  0.96910177  0.11655258  0.03128619    -0.12500
C2836       C  0.95229142  0.09188298  0.02109738     0.04500
C2837       C  0.96578471  0.07810353  0.00332901    -0.07800
C2838       C  0.99324866  0.09124347  0.99474356    -0.08500
C2839       C  0.50901983  0.11697820  0.00432184    -0.03100
C2840       C  0.49752116  0.12898810  0.02329218     0.03800
N2841       N  0.51230983  0.15602026  0.03300648     0.66300
H2842       H  0.95946044  0.12679687  0.04528407     0.15200
H2843       H  0.00247144  0.08027116  0.98079907     0.14900
N2844       N  0.95094694  0.05144791  0.99321809     0.74000
O2845       O  0.50599406  0.18412957  0.02704952    -0.39500
O2846       O  0.53400995  0.15169371  0.04609919    -0.39400
O2847       O  0.93847701  0.05545777  0.97580490    -0.40100
O2848       O  0.95682209  0.02329726  0.99927519    -0.40200
C2849       C  0.87621822  0.00620122  0.97391405    -0.12500
C2850       C  0.85672696  0.00694923  0.99156074     0.04500
C2851       C  0.84670772  0.47494943  0.00026039    -0.07800
C2852       C  0.85867301  0.44659727  0.99191146    -0.08500
C2853       C  0.87981917  0.44660898  0.97507503    -0.03100
C2854       C  0.88561614  0.47589789  0.96493589     0.03800
N2855       N  0.90555985  0.47707316  0.94715768     0.66300
H2856       H  0.88438174  0.02853562  0.96726482     0.15200
H2857       H  0.85262964  0.42432153  0.99954855     0.14900
N2858       N  0.82761443  0.47331092  0.01844474     0.74000
O2859       O  0.90015165  0.97706963  0.93127079    -0.39500
O2860       O  0.93431209  0.48560990  0.94892885    -0.39400
O2861       O  0.79792625  0.46902248  0.01677152    -0.40100
O2862       O  0.84095579  0.46769540  0.03540304    -0.40200
C2863       C  0.90299106  0.23701483  0.01252570    -0.12500
C2864       C  0.87850383  0.25828907  0.00740639     0.04500
C2865       C  0.84669971  0.25015559  0.01229996    -0.07800
C2866       C  0.83971540  0.22058932  0.02140893    -0.08500
C2867       C  0.86389233  0.19837280  0.02517655    -0.03100
C2868       C  0.89589506  0.20729404  0.02150941     0.03800
N2869       N  0.92126585  0.18570310  0.02609081     0.66300
H2870       H  0.92752257  0.24296774  0.00884888     0.15200
H2871       H  0.81497514  0.21377492  0.02362501     0.14900
N2872       N  0.82078583  0.26942944  0.00549780     0.74000
O2873       O  0.93941591  0.17583071  0.01191367    -0.39500
O2874       O  0.92441564  0.17514142  0.04409998    -0.39400
O2875       O  0.80210556  0.25782666  0.99220445    -0.40100
O2876       O  0.81168526  0.29278049  0.01650052    -0.40200
C2877       C  0.88715913  0.37219930  0.86101707    -0.12500
C2878       C  0.85470846  0.36812561  0.85625254     0.04500
C2879       C  0.83299012  0.36302557  0.87251020    -0.07800
C2880       C  0.84440166  0.35843982  0.89260118    -0.08500
C2881       C  0.87722790  0.36009506  0.89709032    -0.03100
C2882       C  0.89846563  0.36876368  0.88113501     0.03800
N2883       N  0.93190586  0.37228219  0.88473895     0.66300
H2884       H  0.90422557  0.37663410  0.84881246     0.15200
H2885       H  0.82746171  0.35306047  0.90470916     0.14900
N2886       N  0.79949966  0.36077738  0.86876529     0.74000
O2887       O  0.95021751  0.34854655  0.88200297    -0.39500
O2888       O  0.94364606  0.40008453  0.88663123    -0.39400
O2889       O  0.78602485  0.33364931  0.86894183    -0.40100
O2890       O  0.78271564  0.38596619  0.86927524    -0.40200
C2891       C  0.66079146  0.14165016  0.87009351    -0.12500
C2892       C  0.63707212  0.13512360  0.85565638     0.04500
C2893       C  0.60550555  0.13019451  0.86244549    -0.07800
C2894       C  0.59803688  0.13347239  0.88333886    -0.08500
C2895       C  0.62141082  0.14243785  0.89778100    -0.03100
C2896       C  0.65334376  0.14590148  0.89089444     0.03800
N2897       N  0.67878079  0.15411321  0.90446269     0.66300
H2898       H  0.68508134  0.14590081  0.86500516     0.15200
H2899       H  0.57346626  0.13016393  0.88809706     0.14900
N2900       N  0.58068063  0.12235075  0.84826035     0.74000
O2901       O  0.70300177  0.13611278  0.90466318    -0.39500
O2902       O  0.68168216  0.18296153  0.91030862    -0.39400
O2903       O  0.57381616  0.09323946  0.84494820    -0.40100
O2904       O  0.56198622  0.14407383  0.84217734    -0.40200
C2905       C  0.71585390  0.25392722  0.81648389    -0.12500
C2906       C  0.72710623  0.22222814  0.81396636     0.04500
C2907       C  0.76053592  0.21770410  0.81218613    -0.07800
C2908       C  0.78131147  0.24442191  0.81154527    -0.08500
C2909       C  0.76982647  0.27621458  0.81292152    -0.03100
C2910       C  0.73660922  0.28058568  0.81602953     0.03800
N2911       N  0.72332602  0.31199495  0.81866702     0.66300
H2912       H  0.69048137  0.25833106  0.81806078     0.15200
H2913       H  0.80661045  0.24017575  0.80938005     0.14900
N2914       N  0.77385998  0.18611329  0.81075233     0.74000
O2915       O  0.71059321  0.32585948  0.80357372    -0.39500
O2916       O  0.71836638  0.32267370  0.83657526    -0.39400
O2917       O  0.78662306  0.17664940  0.79421346    -0.40100
O2918       O  0.77265601  0.16751113  0.82598706    -0.40200
C2919       C  0.60459143  0.40647110  0.63465914    -0.12500
C2920       C  0.60350032  0.38143761  0.64905287     0.04500
C2921       C  0.60717197  0.34954502  0.64187236    -0.07800
C2922       C  0.61124610  0.34325266  0.62082814    -0.08500
C2923       C  0.61085902  0.36811509  0.60635216    -0.03100
C2924       C  0.60772769  0.40012839  0.61352773     0.03800
N2925       N  0.60753094  0.42654553  0.59960430     0.66300
H2926       H  0.60194580  0.43118780  0.63976768     0.15200
H2927       H  0.61339628  0.31847671  0.61574163     0.14900
N2928       N  0.60749805  0.32310832  0.65567141     0.74000
O2929       O  0.58122776  0.43803214  0.59375896    -0.39500
O2930       O  0.63282079  0.44237891  0.59675762    -0.39400
O2931       O  0.58172840  0.30840289  0.65914049    -0.40100
O2932       O  0.63364068  0.30899282  0.65887168    -0.40200
C2933       C  0.96407226  0.35334945  0.77972671    -0.12500
C2934       C  0.93982485  0.37615630  0.77732349     0.04500
C2935       C  0.94792329  0.40692891  0.76938730    -0.07800
C2936       C  0.47700081  0.41255253  0.75822827    -0.08500
C2937       C  0.50084187  0.38923691  0.75943492    -0.03100
C2938       C  0.49496018  0.36054454  0.77020279     0.03800
N2939       N  0.51827072  0.33562235  0.77107077     0.66300
H2940       H  0.95876092  0.33003824  0.78612565     0.15200
H2941       H  0.48161190  0.43498369  0.75034508     0.14900
N2942       N  0.92513269  0.43242178  0.76785504     0.74000
O2943       O  0.53061542  0.32892572  0.78817792    -0.39500
O2944       O  0.51911446  0.31501062  0.75677153    -0.39400
O2945       O  0.93024201  0.45807374  0.77775895    -0.40100
O2946       O  0.90716228  0.43349040  0.75234624    -0.40200
C2947       C  0.71830840  0.38896250  0.71956533    -0.12500
C2948       C  0.69128910  0.37518118  0.72863610     0.04500
C2949       C  0.69539512  0.35068905  0.74343539    -0.07800
C2950       C  0.72575918  0.34367558  0.75078093    -0.08500
C2951       C  0.75233054  0.36014625  0.74345653    -0.03100
C2952       C  0.74893446  0.38143184  0.72678862     0.03800
N2953       N  0.77596494  0.39732422  0.71810123     0.66300
H2954       H  0.71557164  0.40734660  0.70796764     0.15200
H2955       H  0.72835810  0.32674404  0.76326792     0.14900
N2956       N  0.66900048  0.33331077  0.75173916     0.74000
O2957       O  0.79471960  0.38157675  0.70666727    -0.39500
O2958       O  0.77666612  0.42764274  0.71765812    -0.39400
O2959       O  0.66522457  0.30447648  0.74616348    -0.40100
O2960       O  0.65701376  0.34243718  0.76859654    -0.40200
C2961       C  0.61779575  0.24686819  0.73339207    -0.12500
C2962       C  0.61753254  0.24187520  0.75470439     0.04500
C2963       C  0.60231409  0.26466788  0.76756547    -0.07800
C2964       C  0.58995879  0.29256229  0.75921065    -0.08500
C2965       C  0.59238030  0.29904590  0.73820445    -0.03100
C2966       C  0.60587595  0.27561572  0.72508811     0.03800
N2967       N  0.61225062  0.28253803  0.70410066     0.66300
H2968       H  0.62930334  0.22951470  0.72333956     0.15200
H2969       H  0.58042884  0.31051839  0.76961599     0.14900
N2970       N  0.59970427  0.26043430  0.78929882     0.74000
O2971       O  0.63682818  0.29869584  0.69980215    -0.39500
O2972       O  0.59942676  0.26542140  0.69035243    -0.39400
O2973       O  0.62088173  0.27223128  0.80084326    -0.40100
O2974       O  0.57310174  0.25280472  0.79694613    -0.40200
C2975       C  0.62090282  0.99660982  0.77371243    -0.12500
C2976       C  0.63438672  0.48895919  0.75721305     0.04500
C2977       C  0.66191432  0.50524732  0.75003139    -0.07800
C2978       C  0.65988424  0.03775285  0.75153436    -0.08500
C2979       C  0.65070238  0.04686540  0.77139094    -0.03100
C2980       C  0.63133402  0.02570724  0.78284184     0.03800
N2981       N  0.61975674  0.03463247  0.80272398     0.66300
H2982       H  0.60497497  0.98093294  0.78218845     0.15200
H2983       H  0.67366308  0.05407762  0.74207344     0.14900
N2984       N  0.67933311  0.49451208  0.73236380     0.74000
O2985       O  0.59418986  0.05048205  0.80431164    -0.39500
O2986       O  0.63151593  0.02170865  0.81846948    -0.39400
O2987       O  0.67377750  0.50703374  0.71512296    -0.40100
O2988       O  0.70419627  0.47783074  0.73469940    -0.40200
C2989       C  0.92546257  0.14974097  0.64299649    -0.12500
C2990       C  0.90524328  0.12534053  0.65035429     0.04500
C2991       C  0.88607440  0.10838238  0.63604587    -0.07800
C2992       C  0.88789013  0.11570006  0.61496874    -0.08500
C2993       C  0.90906224  0.13921805  0.60775478    -0.03100
C2994       C  0.92757959  0.15662750  0.62199581     0.03800
N2995       N  0.94859170  0.18157338  0.61532686     0.66300
H2996       H  0.94020278  0.16333443  0.65359531     0.15200
H2997       H  0.87386475  0.10186785  0.60409523     0.14900
N2998       N  0.86664845  0.08198965  0.64236935     0.74000
O2999       O  0.93829132  0.20999033  0.61394247    -0.39500
O3000       O  0.97824405  0.17644619  0.61455626    -0.39400
O3001       O  0.83671066  0.08506849  0.64288491    -0.40100
O3002       O  0.87884162  0.05435218  0.64385563    -0.40200
C3003       C  0.49504929  0.47296698  0.69478746    -0.12500
C3004       C  0.52788157  0.47999920  0.69613313     0.04500
C3005       C  0.53686989  0.51285084  0.69740592    -0.07800
C3006       C  0.01168916  0.03810779  0.69689639    -0.08500
C3007       C  0.97890439  0.03084013  0.69637921    -0.03100
C3008       C  0.46610830  0.99553770  0.69007582     0.03800
N3009       N  0.93729615  0.98873788  0.69420338     0.66300
H3010       H  0.48721685  0.44817707  0.69380055     0.15200
H3011       H  0.01940527  0.06288961  0.69834378     0.14900
N3012       N  0.56964559  0.52229068  0.69811103     0.74000
O3013       O  0.42366461  0.98739759  0.66770769    -0.39500
O3014       O  0.92511423  0.97713331  0.71027603    -0.39400
O3015       O  0.58340180  0.53107659  0.68181779    -0.40100
O3016       O  0.58250434  0.52822056  0.71523095    -0.40200
C3017       C  0.82244126  0.47005934  0.75534455    -0.12500
C3018       C  0.83319986  0.45910152  0.77438491     0.04500
C3019       C  0.85407332  0.47886665  0.78582548    -0.07800
C3020       C  0.86771496  0.00979496  0.77571062    -0.08500
C3021       C  0.86489968  0.01589431  0.75444754    -0.03100
C3022       C  0.83470209  0.49776351  0.74641121     0.03800
N3023       N  0.82197577  0.50754440  0.72706654     0.66300
H3024       H  0.80527291  0.45596667  0.74678972     0.15200
H3025       H  0.87968461  0.02711466  0.78550713     0.14900
N3026       N  0.86198340  0.47111238  0.80655161     0.74000
O3027       O  0.83115272  0.49361131  0.71082184    -0.39500
O3028       O  0.79719022  0.52476333  0.72669570    -0.39400
O3029       O  0.88766285  0.45664934  0.81052556    -0.40100
O3030       O  0.84567365  0.48296072  0.82105072    -0.40200
C3031       C  0.87718780  0.25897364  0.73021437    -0.12500
C3032       C  0.88314489  0.26806351  0.75075334     0.04500
C3033       C  0.90456245  0.24950759  0.76246688    -0.07800
C3034       C  0.91698938  0.22112819  0.75447852    -0.08500
C3035       C  0.90849111  0.21009882  0.73492475    -0.03100
C3036       C  0.88976822  0.22990728  0.72222286     0.03800
N3037       N  0.88215554  0.22005308  0.70173037     0.66300
H3038       H  0.86148072  0.27340618  0.72082690     0.15200
H3039       H  0.93206237  0.20654604  0.76422169     0.14900
N3040       N  0.91367756  0.25881056  0.78279412     0.74000
O3041       O  0.86247820  0.19754839  0.69874213    -0.39500
O3042       O  0.89953948  0.22931981  0.68706515    -0.39400
O3043       O  0.90000066  0.24590293  0.79794292    -0.40100
O3044       O  0.94026194  0.27239777  0.78543509    -0.40200
C3045       C  0.54409981  0.10482241  0.77557395    -0.12500
C3046       C  0.55168968  0.13762833  0.77813446     0.04500
C3047       C  0.52717194  0.16070951  0.77687443    -0.07800
C3048       C  0.99649138  0.15222656  0.77316511    -0.08500
C3049       C  0.98965009  0.12057471  0.76708519    -0.03100
C3050       C  0.51319304  0.09525233  0.77010724     0.03800
N3051       N  0.50638613  0.06205243  0.76642532     0.66300
H3052       H  0.56259378  0.08674541  0.77679588     0.15200
H3053       H  0.97834656  0.17064499  0.77174268     0.14900
N3054       N  0.53370026  0.19434329  0.77848025     0.74000
O3055       O  0.51468116  0.04906913  0.74968415    -0.39500
O3056       O  0.98888390  0.04752552  0.77362189    -0.39400
O3057       O  0.54627715  0.20860469  0.76343489    -0.40100
O3058       O  0.51989826  0.21067106  0.79227487    -0.40200
C3059       C  0.76356865  0.16112215  0.74392860    -0.12500
C3060       C  0.74158295  0.13584660  0.74418713     0.04500
C3061       C  0.75025340  0.10613091  0.73519323    -0.07800
C3062       C  0.78081466  0.10164071  0.72704253    -0.08500
C3063       C  0.80395930  0.12565396  0.72873381    -0.03100
C3064       C  0.79479970  0.15622620  0.73665128     0.03800
N3065       N  0.81696129  0.18227419  0.73815400     0.66300
H3066       H  0.75732573  0.18400234  0.75092888     0.15200
H3067       H  0.78735271  0.07799106  0.72132802     0.14900
N3068       N  0.72939260  0.07915418  0.73573887     0.74000
O3069       O  0.81247764  0.20679429  0.72720753    -0.39500
O3070       O  0.83387236  0.18496304  0.75408586    -0.39400
O3071       O  0.71736886  0.06938588  0.71907701    -0.40100
O3072       O  0.73177165  0.05985028  0.75055003    -0.40200
O3073       O  0.85491337  0.62075270  0.74277039    -0.82000
C3074       C  0.94903977  0.55275457  0.70123976     0.97400
O3075       O  0.91897978  0.54977157  0.69790539    -0.71100
O3076       O  0.87417578  0.54426100  0.72675964    -0.74700
Al3077     Al  0.88147931  0.57535460  0.70637531     1.49000
C3078       C  0.87386694  0.54359949  0.74603308     0.92600
O3079       O  0.93899947  0.59916144  0.75791276    -0.80900
O3080       O  0.92001895  0.66124199  0.71266598    -0.74500
Al3081     Al  0.89706965  0.60937080  0.74816783     1.90100
O3082       O  0.96309811  0.62809912  0.73492765    -0.73600
O3083       O  0.92975018  0.61759555  0.68255334    -0.73400
O3084       O  0.96056383  0.57907467  0.70812999    -0.79100
O3085       O  0.88115395  0.60096379  0.68190137    -0.77300
O3086       O  0.90582296  0.60100783  0.72173613    -1.13400
O3087       O  0.84225958  0.59749374  0.71351557    -0.72600
C3088       C  0.83499790  0.61518742  0.72881298     0.98100
C3089       C  0.96254589  0.61576672  0.75242231     0.94500
Al3090     Al  0.94003587  0.61967148  0.71057584     1.55600
O3091       O  0.88450846  0.56704395  0.75616622    -0.77200
C3092       C  0.90485892  0.61224490  0.67273630     0.98700
C3093       C  0.91030256  0.67230879  0.72985209     0.93600
O3094       O  0.90644037  0.65417289  0.74530525    -0.82500
O3095       O  0.63713577  0.87789315  0.73698615    -0.82000
C3096       C  0.54352220  0.94755927  0.69538383     0.97400
O3097       O  0.57329202  0.95195339  0.69307227    -0.71100
O3098       O  0.61011819  0.96182277  0.72396959    -0.74700
Al3099     Al  0.61022319  0.92992657  0.70348512     1.49000
C3100       C  0.61657060  0.96012699  0.74268549     0.92600
O3101       O  0.55597935  0.90802425  0.75332730    -0.80900
O3102       O  0.57398874  0.83868351  0.71138571    -0.74500
Al3103     Al  0.59650759  0.89355962  0.74398913     1.90100
O3104       O  0.52943314  0.87890236  0.73071255    -0.73600
O3105       O  0.57122556  0.87738945  0.67881508    -0.73400
O3106       O  0.53277273  0.92016423  0.70042223    -0.79100
O3107       O  0.61558839  0.90419991  0.67961345    -0.77300
O3108       O  0.58727584  0.90164653  0.71767911    -1.13400
O3109       O  0.65019766  0.91235363  0.71259946    -0.72600
C3110       C  0.65749569  0.89015983  0.72508512     0.98100
C3111       C  0.53074064  0.89405699  0.74760126     0.94500
Al3112     Al  0.55462555  0.88061667  0.70612501     1.55600
O3113       O  0.61380746  0.93398991  0.75187103    -0.77200
C3114       C  0.59670263  0.88596395  0.67025788     0.98700
C3115       C  0.58099255  0.83017748  0.72951375     0.93600
O3116       O  0.58256775  0.85095639  0.74356222    -0.82500
O3117       O  0.60345124  0.62999365  0.77140685    -0.82000
C3118       C  0.70145314  0.69954091  0.81057367     0.97400
O3119       O  0.67183542  0.70374113  0.81368754    -0.71100
O3120       O  0.64087776  0.71448548  0.78033984    -0.74700
Al3121     Al  0.63444961  0.68452607  0.80113749     1.49000
C3122       C  0.62914633  0.71178528  0.76275109     0.92600
O3123       O  0.68448618  0.65418676  0.75110053    -0.80900
O3124       O  0.66756159  0.59260601  0.79718249    -0.74500
Al3125     Al  0.64399308  0.64296671  0.76238662     1.90100
O3126       O  0.71189747  0.62827738  0.77473670    -0.73600
O3127       O  0.67151041  0.63570597  0.82739041    -0.73400
O3128       O  0.71147090  0.67302200  0.80345392    -0.79100
O3129       O  0.62502850  0.65844316  0.82356152    -0.77300
O3130       O  0.65557987  0.65399790  0.78782246    -1.13400
O3131       O  0.59280292  0.67165829  0.79116192    -0.72600
C3132       C  0.58378773  0.64663652  0.78157104     0.98100
C3133       C  0.71009859  0.64131058  0.75720116     0.94500
Al3134     Al  0.68800633  0.63394626  0.79979067     1.55600
O3135       O  0.62756231  0.68450341  0.75422932    -0.77200
C3136       C  0.64427056  0.64299331  0.83433123     0.98700
C3137       C  0.65950856  0.58103621  0.77996767     0.93600
O3138       O  0.65610913  0.59904641  0.76457416    -0.82500
O3139       O  0.88541702  0.87258337  0.76535648    -0.82000
C3140       C  0.79243246  0.80625063  0.80953337     0.97400
O3141       O  0.82234296  0.80046577  0.81105475    -0.71100
O3142       O  0.85938433  0.79038159  0.77940032    -0.74700
Al3143     Al  0.86030549  0.82213219  0.79998316     1.49000
C3144       C  0.86395785  0.79221396  0.76045646     0.92600
O3145       O  0.80170653  0.84757352  0.75286295    -0.80900
O3146       O  0.82810072  0.91389822  0.79561154    -0.74500
Al3147     Al  0.84391960  0.85941712  0.76040178     1.90100
O3148       O  0.77986507  0.87925703  0.77607765    -0.73600
O3149       O  0.82250800  0.87136724  0.82765685    -0.73400
O3150       O  0.78277979  0.83407321  0.80451525    -0.79100
O3151       O  0.86772657  0.84709773  0.82362103    -0.77300
O3152       O  0.83699114  0.85101821  0.78689106    -1.13400
O3153       O  0.90049299  0.84019491  0.79017761    -0.72600
C3154       C  0.90661481  0.86221913  0.77719041     0.98100
C3155       C  0.77868827  0.86476194  0.75895068     0.94500
Al3156     Al  0.80606049  0.87278677  0.79998008     1.55600
O3157       O  0.85853147  0.81804530  0.75128757    -0.77200
C3158       C  0.84860520  0.86194681  0.83490671     0.98700
C3159       C  0.83415948  0.92334150  0.77740833     0.93600
O3160       O  0.83314184  0.90344970  0.76265229    -0.82500
O3161       O  0.89700150  0.58720965  0.00955124    -0.82000
C3162       C  0.80119351  0.54559035  0.05904525     0.97400
O3163       O  0.82744525  0.53524545  0.05202940    -0.71100
O3164       O  0.86874943  0.53257119  0.02196801    -0.74700
Al3165     Al  0.86611944  0.55764571  0.04676210     1.49000
C3166       C  0.85422994  0.53357629  0.00493555     0.92600
O3167       O  0.81204307  0.61729750  0.00259967    -0.80900
O3168       O  0.83206237  0.65453406  0.03950737    -0.74500
Al3169     Al  0.85353507  0.60028863  0.00918414     1.90100
O3170       O  0.78536013  0.60950338  0.03080929    -0.73600
O3171       O  0.84559453  0.62138551  0.07182937    -0.73400
O3172       O  0.79740339  0.57556136  0.06242302    -0.79100
O3173       O  0.86779382  0.57436631  0.07438287    -0.77300
O3174       O  0.84548323  0.59041614  0.03536904    -1.13400
O3175       O  0.90718489  0.57748710  0.04198529    -0.72600
C3176       C  0.91671040  0.58454713  0.02408086     0.98100
C3177       C  0.78625449  0.61844075  0.01256417     0.94500
Al3178     Al  0.81758568  0.61324898  0.04998709     1.55600
O3179       O  0.84034759  0.55900853  0.99919380    -0.77200
C3180       C  0.86158723  0.60167330  0.08190410     0.98700
C3181       C  0.85494996  0.66211540  0.02762478     0.93600
O3182       O  0.86833019  0.64130699  0.01642833    -0.82500
O3183       O  0.60359148  0.90396271  0.01127571    -0.82000
C3184       C  0.69963595  0.94990035  0.05851503     0.97400
O3185       O  0.67000914  0.95792057  0.05899038    -0.71100
O3186       O  0.62575544  0.96662931  0.02953653    -0.74700
Al3187     Al  0.63057579  0.93594684  0.05067481     1.49000
C3188       C  0.63432465  0.96908546  0.01113720     0.92600
O3189       O  0.69126544  0.90218849  0.00077026    -0.80900
O3190       O  0.65989827  0.84502851  0.04262422    -0.74500
Al3191     Al  0.64786373  0.90301662  0.00900861     1.90100
O3192       O  0.71042873  0.87444634  0.02573965    -0.73600
O3193       O  0.66745150  0.88168355  0.07482609    -0.73400
O3194       O  0.70808784  0.92107034  0.05436093    -0.79100
O3195       O  0.62677198  0.91305183  0.07620768    -0.77300
O3196       O  0.65379762  0.90748156  0.03605268    -1.13400
O3197       O  0.58953041  0.91681238  0.04275933    -0.72600
C3198       C  0.58220204  0.90786937  0.02461187     0.98100
C3199       C  0.71268683  0.88474943  0.00785481     0.94500
Al3200     Al  0.68347617  0.88331543  0.04824437     1.55600
O3201       O  0.64996552  0.94706152  0.00265895    -0.77200
C3202       C  0.64422994  0.89251142  0.08451134     0.98700
C3203       C  0.64607265  0.83777422  0.02588061     0.93600
O3204       O  0.64410114  0.85753369  0.01117375    -0.82500
O3205       O  0.85191911  0.86266471  0.98735099    -0.82000
C3206       C  0.95179655  0.80208262  0.94454383     0.97400
O3207       O  0.92252799  0.79404372  0.94339718    -0.71100
O3208       O  0.88990652  0.78211826  0.97674793    -0.74700
Al3209     Al  0.88352177  0.81162737  0.95508891     1.49000
C3210       C  0.88602725  0.78570708  0.99574474     0.92600
O3211       O  0.93927038  0.85162007  0.00257322    -0.80900
O3212       O  0.90640965  0.90607951  0.95593323    -0.74500
Al3213     Al  0.89529284  0.85559744  0.99339946     1.90100
O3214       O  0.95731807  0.87868919  0.97631337    -0.73600
O3215       O  0.91519936  0.86240513  0.92614534    -0.73400
O3216       O  0.95943157  0.83065899  0.94956728    -0.79100
O3217       O  0.87219744  0.83474162  0.93103465    -0.77300
O3218       O  0.90376514  0.84432798  0.96726982    -1.13400
O3219       O  0.84178250  0.82404007  0.96500302    -0.72600
C3220       C  0.83259409  0.84723956  0.97626205     0.98100
C3221       C  0.96064772  0.86928547  0.99461004     0.94500
Al3222     Al  0.93223592  0.86740182  0.95318004     1.55600
O3223       O  0.88634789  0.81334714  0.00370301    -0.77200
C3224       C  0.88906540  0.85194543  0.91957207     0.98700
C3225       C  0.89699778  0.91678351  0.97322898     0.93600
O3226       O  0.90080262  0.90024984  0.98922750    -0.82500
O3227       O  0.64298839  0.63990856  0.99011649    -0.82000
C3228       C  0.54924485  0.70189722  0.94380902     0.97400
O3229       O  0.57899714  0.70841509  0.94280964    -0.71100
O3230       O  0.61064400  0.71824838  0.97676637    -0.74700
Al3231     Al  0.61675437  0.68851227  0.95526383     1.49000
C3232       C  0.60997671  0.71520091  0.99592477     0.92600
O3233       O  0.55512662  0.65041210  0.00071684    -0.80900
O3234       O  0.58809715  0.59555777  0.95502811    -0.74500
Al3235     Al  0.59938702  0.64630826  0.99338216     1.90100
O3236       O  0.53812504  0.62447532  0.97379339    -0.73600
O3237       O  0.58361466  0.64033031  0.92569347    -0.73400
O3238       O  0.54018962  0.67372165  0.94851596    -0.79100
O3239       O  0.62846231  0.66438680  0.93140522    -0.77300
O3240       O  0.59397405  0.65715825  0.96696052    -1.13400
O3241       O  0.65728357  0.67437921  0.96629521    -0.72600
C3242       C  0.66425964  0.65394748  0.97992090     0.98100
C3243       C  0.53455558  0.63263773  0.99224061     0.94500
Al3244     Al  0.56514022  0.63567902  0.95201110     1.55600
O3245       O  0.60632031  0.68821662  0.00406377    -0.77200
C3246       C  0.61063607  0.64879295  0.91958371     0.98700
C3247       C  0.59456994  0.58423198  0.97263465     0.93600
O3248       O  0.59502816  0.60191087  0.98843646    -0.82500
O3249       O  0.87038092  0.64117418  0.51272896    -0.82000
C3250       C  0.96611571  0.69622895  0.55779237     0.97400
O3251       O  0.93642108  0.70258674  0.55995597    -0.71100
O3252       O  0.89553206  0.71099132  0.52979118    -0.74700
Al3253     Al  0.89786090  0.68074824  0.55081870     1.49000
C3254       C  0.89987402  0.71224833  0.51074433     0.92600
O3255       O  0.95881655  0.64813220  0.50196582    -0.80900
O3256       O  0.92698500  0.59060536  0.54614281    -0.74500
Al3257     Al  0.91480436  0.64496352  0.50975533     1.90100
O3258       O  0.97670173  0.61791307  0.52628185    -0.73600
O3259       O  0.93728716  0.63258730  0.57670024    -0.73400
O3260       O  0.97558592  0.66804139  0.55270655    -0.79100
O3261       O  0.89243352  0.65734342  0.57576468    -0.77300
O3262       O  0.92095285  0.65207986  0.53662578    -1.13400
O3263       O  0.85763614  0.66249071  0.54276764    -0.72600
C3264       C  0.84998232  0.64826592  0.52626217     0.98100
C3265       C  0.97970208  0.62931146  0.50863705     0.94500
Al3266     Al  0.95126268  0.62959499  0.54932920     1.55600
O3267       O  0.91098115  0.68848633  0.50120730    -0.77200
C3268       C  0.91244715  0.64152012  0.58563192     0.98700
C3269       C  0.91547760  0.58154408  0.52896769     0.93600
O3270       O  0.91628127  0.59957466  0.51328418    -0.82500
O3271       O  0.90628618  0.88561968  0.49018067    -0.82000
C3272       C  0.80941396  0.94663746  0.44617858     0.97400
O3273       O  0.83877392  0.95417004  0.44521257    -0.71100
O3274       O  0.86871704  0.96666432  0.47915929    -0.74700
Al3275     Al  0.87668114  0.93659276  0.45784483     1.49000
C3276       C  0.87263242  0.96358512  0.49814911     0.92600
O3277       O  0.82069066  0.90140008  0.50542018    -0.80900
O3278       O  0.84953921  0.84187904  0.46023510    -0.74500
Al3279     Al  0.86385796  0.89456173  0.49635303     1.90100
O3280       O  0.80076869  0.87420162  0.47954112    -0.73600
O3281       O  0.84526822  0.88445814  0.42970135    -0.73400
O3282       O  0.80118960  0.91876518  0.45170741    -0.79100
O3283       O  0.88854261  0.91229409  0.43422065    -0.77300
O3284       O  0.85575582  0.90463221  0.47012324    -1.13400
O3285       O  0.91805539  0.92423076  0.46849351    -0.72600
C3286       C  0.92636075  0.90053738  0.47944861     0.98100
C3287       C  0.79861593  0.88442673  0.49781030     0.94500
Al3288     Al  0.82666913  0.88186486  0.45637551     1.55600
O3289       O  0.87415794  0.93623773  0.50602237    -0.77200
C3290       C  0.87141229  0.89485656  0.42298356     0.98700
C3291       C  0.85570841  0.83141304  0.47803709     0.93600
O3292       O  0.85670603  0.85022719  0.49320923    -0.82500
O3293       O  0.62045395  0.61326805  0.48602999    -0.82000
C3294       C  0.71454018  0.54584801  0.44229408     0.97400
O3295       O  0.68489623  0.53981133  0.44130299    -0.71100
O3296       O  0.65518391  0.53009150  0.47583779    -0.74700
Al3297     Al  0.64814646  0.55935027  0.45410820     1.49000
C3298       C  0.65060553  0.53460717  0.49470228     0.92600
O3299       O  0.70649077  0.59544623  0.50028129    -0.80900
O3300       O  0.67864265  0.65319064  0.45421202    -0.74500
Al3301     Al  0.66313032  0.60327264  0.49166328     1.90100
O3302       O  0.72677930  0.62094074  0.47398526    -0.73600
O3303       O  0.68195850  0.60714201  0.42449280    -0.73400
O3304       O  0.72430436  0.57350710  0.44751905    -0.79100
O3305       O  0.63685020  0.58287282  0.43012030    -0.77300
O3306       O  0.67040398  0.59124372  0.46560901    -1.13400
O3307       O  0.60780825  0.57314489  0.46533777    -0.72600
C3308       C  0.59992484  0.59689030  0.47652482     0.98100
C3309       C  0.72916294  0.61113576  0.49224154     0.94500
Al3310     Al  0.70028744  0.61189064  0.45119483     1.55600
O3311       O  0.65123676  0.56241101  0.50223414    -0.77200
C3312       C  0.65553065  0.59706473  0.41806248     0.98700
C3313       C  0.67301680  0.66499600  0.47191507     0.93600
O3314       O  0.67169034  0.64710945  0.48743722    -0.82500
O3315       O  0.66207579  0.84346244  0.51466307    -0.82000
C3316       C  0.56594130  0.79253903  0.55890096     0.97400
O3317       O  0.59350769  0.78465488  0.55276669    -0.71100
O3318       O  0.64132677  0.78559663  0.52685756    -0.74700
Al3319     Al  0.62980195  0.81091902  0.55019283     1.49000
C3320       C  0.63093073  0.78262413  0.50874854     0.92600
O3321       O  0.57564509  0.85613049  0.50053196    -0.80900
O3322       O  0.58798091  0.90361815  0.53850225    -0.74500
Al3323     Al  0.61769914  0.84817247  0.51031584     1.90100
O3324       O  0.54625652  0.85401676  0.52822204    -0.73600
O3325       O  0.60066827  0.87322487  0.57247205    -0.73400
O3326       O  0.55869505  0.82216589  0.56142481    -0.79100
O3327       O  0.62355639  0.82720697  0.57756476    -0.77300
O3328       O  0.60752094  0.84035965  0.53648387    -1.13400
O3329       O  0.66844959  0.83573547  0.54795391    -0.72600
C3330       C  0.67962469  0.84299725  0.53043650     0.98100
C3331       C  0.54875864  0.85610557  0.50909226     0.94500
Al3332     Al  0.57607125  0.86144159  0.54909732     1.55600
O3333       O  0.61297270  0.80411467  0.50151050    -0.77200
C3334       C  0.61394640  0.85384248  0.58435003     0.98700
C3335       C  0.61013860  0.91200511  0.52632225     0.93600
O3336       O  0.62455203  0.89152854  0.51551198    -0.82500
O3337       O  0.86840548  0.88987385  0.26202127    -0.82000
C3338       C  0.95944769  0.94475170  0.31110929     0.97400
O3339       O  0.92930283  0.95015388  0.31270590    -0.71100
O3340       O  0.89065893  0.95869643  0.28181056    -0.74700
Al3341     Al  0.89134577  0.92765343  0.30177869     1.49000
C3342       C  0.89719527  0.96181810  0.26326672     0.92600
O3343       O  0.95753165  0.89757123  0.25471796    -0.80900
O3344       O  0.92239721  0.83886295  0.29729431    -0.74500
Al3345     Al  0.91273781  0.89422937  0.26097667     1.90100
O3346       O  0.97280327  0.86771530  0.27987461    -0.73600
O3347       O  0.92976047  0.88095964  0.32949793    -0.73400
O3348       O  0.96983007  0.91684451  0.30635805    -0.79100
O3349       O  0.88374459  0.90245814  0.32526267    -0.77300
O3350       O  0.91631922  0.90034299  0.28816313    -1.13400
O3351       O  0.85173184  0.90918286  0.29166848    -0.72600
C3352       C  0.84615178  0.89577721  0.27449909     0.98100
C3353       C  0.97763757  0.87861424  0.26224933     0.94500
Al3354     Al  0.94578297  0.87826072  0.30200118     1.55600
O3355       O  0.90900540  0.93863263  0.25330393    -0.77200
C3356       C  0.90316181  0.88872585  0.33664889     0.98700
C3357       C  0.91436133  0.82954080  0.27928757     0.93600
O3358       O  0.91446752  0.84850133  0.26402328    -0.82500
O3359       O  0.61295697  0.83143516  0.23941844    -0.82000
C3360       C  0.70766077  0.78809246  0.18894317     0.97400
O3361       O  0.68170335  0.77748456  0.19624826    -0.71100
O3362       O  0.63868621  0.77520238  0.22611186    -0.74700
Al3363     Al  0.64375064  0.80143679  0.20181610     1.49000
C3364       C  0.65264045  0.77495411  0.24338833     0.92600
O3365       O  0.69995493  0.85501807  0.24837499    -0.80900
O3366       O  0.68129083  0.89719449  0.21241667    -0.74500
Al3367     Al  0.65744069  0.84142173  0.24088265     1.90100
O3368       O  0.72649112  0.84974401  0.21976139    -0.73600
O3369       O  0.66556635  0.86618853  0.17899298    -0.73400
O3370       O  0.71191560  0.81823510  0.18664184    -0.79100
O3371       O  0.64405859  0.81912931  0.17434677    -0.77300
O3372       O  0.66540369  0.83285526  0.21441952    -1.13400
O3373       O  0.60376327  0.82351841  0.20650670    -0.72600
C3374       C  0.59403891  0.83133394  0.22430242     0.98100
C3375       C  0.72593437  0.85622719  0.23858625     0.94500
Al3376     Al  0.69384628  0.85579894  0.20055593     1.55600
O3377       O  0.66794740  0.79922261  0.24960631    -0.77200
C3378       C  0.65058760  0.84685002  0.16778154     0.98700
C3379       C  0.65904674  0.90465740  0.22484814     0.93600
O3380       O  0.64534725  0.88343490  0.23531045    -0.82500
O3381       O  0.65446320  0.60406967  0.26229401    -0.82000
C3382       C  0.55769977  0.54459725  0.30737516     0.97400
O3383       O  0.58723963  0.53799267  0.30936232    -0.71100
O3384       O  0.61810239  0.52476416  0.27581792    -0.74700
Al3385     Al  0.62538635  0.55544733  0.29669794     1.49000
C3386       C  0.61992733  0.52713548  0.25665477     0.92600
O3387       O  0.56702781  0.59014419  0.25057868    -0.80900
O3388       O  0.60123989  0.64828008  0.29525436    -0.74500
Al3389     Al  0.61088705  0.59634615  0.25800882     1.90100
O3390       O  0.54930301  0.62097916  0.27541279    -0.73600
O3391       O  0.59244879  0.60484006  0.32556717    -0.73400
O3392       O  0.54898438  0.57256405  0.30190061    -0.79100
O3393       O  0.63717758  0.58033400  0.32003920    -0.77300
O3394       O  0.60406077  0.58675230  0.28437114    -1.13400
O3395       O  0.66644326  0.56782368  0.28560195    -0.72600
C3396       C  0.67467865  0.58938744  0.27296901     0.98100
C3397       C  0.54586024  0.60870341  0.25777374     0.94500
Al3398     Al  0.57535809  0.60977647  0.29843528     1.55600
O3399       O  0.61941070  0.55413480  0.24820906    -0.77200
C3400       C  0.61901844  0.59539135  0.33203997     0.98700
C3401       C  0.61029519  0.65797988  0.27765395     0.93600
O3402       O  0.60512487  0.64110639  0.26181522    -0.82500
O3403       O  0.90765406  0.65584542  0.23902026    -0.82000
C3404       C  0.81221344  0.69583129  0.19042078     0.97400
O3405       O  0.83930278  0.70540773  0.19635793    -0.71100
O3406       O  0.88457831  0.70950748  0.22396324    -0.74700
Al3407     Al  0.87655147  0.68145543  0.20102995     1.49000
C3408       C  0.87174120  0.71300322  0.24145957     0.92600
O3409       O  0.82031477  0.63578845  0.25040704    -0.80900
O3410       O  0.83935525  0.58782965  0.21501125    -0.74500
Al3411     Al  0.86271584  0.64750650  0.24171581     1.90100
O3412       O  0.79349825  0.63471516  0.22178463    -0.73600
O3413       O  0.85239982  0.61600240  0.18005975    -0.73400
O3414       O  0.80665082  0.66568482  0.18832280    -0.79100
O3415       O  0.87398003  0.66220254  0.17408429    -0.77300
O3416       O  0.85459697  0.65210763  0.21502154    -1.13400
O3417       O  0.91586306  0.65879297  0.20553729    -0.72600
C3418       C  0.92617093  0.65417352  0.22360513     0.98100
C3419       C  0.79462109  0.63122239  0.24083531     0.94500
Al3420     Al  0.82558359  0.62816347  0.20226478     1.55600
O3421       O  0.85327004  0.69154071  0.24824396    -0.77200
C3422       C  0.86634982  0.63450457  0.16793262     0.98700
C3423       C  0.85995326  0.58219102  0.22887610     0.93600
O3424       O  0.87343616  0.60469196  0.23844088    -0.82500
C3425       C  0.50065296  0.59500452  0.23406760    -0.12500
C3426       C  0.51757696  0.61802047  0.24558041     0.04500
C3427       C  0.50584926  0.64989020  0.24661881    -0.07800
C3428       C  0.97511618  0.66752301  0.24223279    -0.08500
C3429       C  0.96006921  0.64778652  0.22779217    -0.03100
C3430       C  0.97509851  0.61910463  0.22142404     0.03800
N3431       N  0.95985740  0.59817684  0.20704456     0.66300
H3432       H  0.50921892  0.57044420  0.23321758     0.15200
H3433       H  0.96380544  0.68971049  0.24717664     0.14900
N3434       N  0.52227260  0.67433883  0.25793314     0.74000
O3435       O  0.96147700  0.60404113  0.18807372    -0.39500
O3436       O  0.94110964  0.57671834  0.21344421    -0.39400
O3437       O  0.54067673  0.69336169  0.24861967    -0.40100
O3438       O  0.51354172  0.68089754  0.27604666    -0.40200
C3439       C  0.75410655  0.63240521  0.26937519    -0.12500
C3440       C  0.76596475  0.61843025  0.25123312     0.04500
C3441       C  0.74968672  0.59187520  0.24249942    -0.07800
C3442       C  0.72137138  0.58089335  0.25127217    -0.08500
C3443       C  0.70841434  0.59600512  0.26856961    -0.03100
C3444       C  0.72511826  0.62166771  0.27792060     0.03800
N3445       N  0.71222563  0.63793289  0.29544950     0.66300
H3446       H  0.76648792  0.65257869  0.27632092     0.15200
H3447       H  0.70842403  0.56152431  0.24378960     0.14900
N3448       N  0.76125496  0.57612125  0.22437046     0.74000
O3449       O  0.72025728  0.62905552  0.31320044    -0.39500
O3450       O  0.69860217  0.66473328  0.29321603    -0.39400
O3451       O  0.77730595  0.55059778  0.22600969    -0.40100
O3452       O  0.74978009  0.58356179  0.20713344    -0.40200
C3453       C  0.76507571  0.77492716  0.19219513    -0.12500
C3454       C  0.73488211  0.76548344  0.18525798     0.04500
C3455       C  0.73109396  0.73364366  0.17781805    -0.07800
C3456       C  0.75661264  0.71149455  0.17902728    -0.08500
C3457       C  0.78652016  0.72055806  0.18700779    -0.03100
C3458       C  0.79063082  0.75323237  0.19308220     0.03800
N3459       N  0.82009334  0.76473085  0.20134444     0.66300
H3460       H  0.76858348  0.79913677  0.19804837     0.15200
H3461       H  0.75295405  0.68706927  0.17365305     0.14900
N3462       N  0.70234493  0.72402888  0.16773026     0.74000
O3463       O  0.83947097  0.77927221  0.18980488    -0.39500
O3464       O  0.82350992  0.76653821  0.22056186    -0.39400
O3465       O  0.69738905  0.73355398  0.14965296    -0.40100
O3466       O  0.68698612  0.70009178  0.17427667    -0.40200
C3467       C  0.65035940  0.68812762  0.25812490    -0.12500
C3468       C  0.62767600  0.68843926  0.27408443     0.04500
C3469       C  0.61891206  0.71809087  0.28294248    -0.07800
C3470       C  0.63016944  0.74687798  0.27410921    -0.08500
C3471       C  0.64953590  0.74613832  0.25637594    -0.03100
C3472       C  0.66089659  0.71648522  0.24911603     0.02200
N3473       N  0.68067730  0.71461883  0.23127746     0.66300
H3474       H  0.65813985  0.66553764  0.25141362     0.15200
H3475       H  0.62195137  0.76972419  0.28014793     0.14900
N3476       N  0.59627379  0.71938388  0.29935347     0.74000
O3477       O  0.71061278  0.71405048  0.23325359    -0.39500
O3478       O  0.66838968  0.70638735  0.21439375    -0.39400
O3479       O  0.60527633  0.71422987  0.31751969    -0.40100
O3480       O  0.56685449  0.72065166  0.29538378    -0.40200
C3481       C  0.61746435  0.94312397  0.23617400    -0.12500
C3482       C  0.64849762  0.93831928  0.22835597     0.04500
C3483       C  0.66920275  0.96499762  0.22692671    -0.07800
C3484       C  0.65042620  0.49673274  0.23018194    -0.08500
C3485       C  0.62501392  0.49786331  0.24429845    -0.03100
C3486       C  0.60789720  0.97293478  0.24403299     0.03800
N3487       N  0.58171092  0.46977046  0.26260116     0.66300
H3488       H  0.60077757  0.92322948  0.23690178     0.15200
H3489       H  0.66343927  0.51851562  0.22656525     0.14900
N3490       N  0.70120560  0.96139604  0.21972076     0.74000
O3491       O  0.55636330  0.99380181  0.24295476    -0.39500
O3492       O  0.58533849  0.45910771  0.28054258    -0.39400
O3493       O  0.70803962  0.96943752  0.20157448    -0.40100
O3494       O  0.72333941  0.95745728  0.23256544    -0.40200
C3495       C  0.97473758  0.50153493  0.30707600    -0.12500
C3496       C  0.98297256  0.97210920  0.31322746     0.04500
C3497       C  0.52139913  0.96194308  0.31624189    -0.07800
C3498       C  0.54329984  0.98756674  0.31486535    -0.08500
C3499       C  0.53348914  0.51840858  0.31066832    -0.03100
C3500       C  0.99618490  0.52753371  0.30568582     0.03800
N3501       N  0.98503144  0.55695247  0.29703244     0.66300
H3502       H  0.95062044  0.50469637  0.30164816     0.15200
H3503       H  0.56851776  0.98208765  0.31586150     0.14900
N3504       N  0.53349063  0.93024173  0.31946461     0.74000
O3505       O  0.98532657  0.56045790  0.27778654    -0.39500
O3506       O  0.47339552  0.57055028  0.31281445    -0.39400
O3507       O  0.54656779  0.91525519  0.30478165    -0.40100
O3508       O  0.53698322  0.92017510  0.33756823    -0.40200
C3509       C  0.51809156  0.83641420  0.25384191    -0.12500
C3510       C  0.00620594  0.86657683  0.25083789     0.04500
C3511       C  0.01785828  0.87946705  0.23220558    -0.07800
C3512       C  0.54741348  0.86914503  0.22175504    -0.08500
C3513       C  0.56044136  0.83983017  0.22863900    -0.03100
C3514       C  0.54452430  0.82293405  0.24418086     0.03800
N3515       N  0.55610814  0.79262612  0.25121525     0.66300
H3516       H  0.50709822  0.82288953  0.26616538     0.15200
H3517       H  0.55979486  0.88277026  0.21004951     0.14900
N3518       N  0.00254498  0.90637945  0.22291684     0.74000
O3519       O  0.56751268  0.79063498  0.26906962    -0.39500
O3520       O  0.54802372  0.76727792  0.24184011    -0.39400
O3521       O  0.00576824  0.93409942  0.23062413    -0.40100
O3522       O  0.98260599  0.90186624  0.20870014    -0.40200
C3523       C  0.80756915  0.89354458  0.24633297    -0.12500
C3524       C  0.81347641  0.88816657  0.26721131     0.04500
C3525       C  0.78953846  0.87335795  0.27915669    -0.07800
C3526       C  0.76079846  0.86334067  0.26982609    -0.08500
C3527       C  0.75584385  0.86732006  0.24860570    -0.03100
C3528       C  0.77954722  0.88323423  0.23697759     0.03800
N3529       N  0.77563518  0.88946592  0.21554785     0.66300
H3530       H  0.82535440  0.90544464  0.23692147     0.15200
H3531       H  0.74281941  0.85145075  0.27904961     0.14900
N3532       N  0.79470937  0.86641709  0.30030726     0.74000
O3533       O  0.76531482  0.91647557  0.20986998    -0.39500
O3534       O  0.78872839  0.87107940  0.20254527    -0.39400
O3535       O  0.77944769  0.88205038  0.31378008    -0.40100
O3536       O  0.80764125  0.84011256  0.30508104    -0.40200
C3537       C  0.88700608  0.49452691  0.23258878    -0.12500
C3538       C  0.88818479  0.99260656  0.25349516     0.04500
C3539       C  0.88109714  0.51825593  0.26658970    -0.07800
C3540       C  0.87011292  0.54637626  0.25763450    -0.08500
C3541       C  0.86746061  0.54953619  0.23636722    -0.03100
C3542       C  0.87539293  0.52315301  0.22376999     0.03800
N3543       N  0.87335984  0.52564282  0.20205536     0.66300
H3544       H  0.89059558  0.97422899  0.22229908     0.15200
H3545       H  0.86359257  0.56630825  0.26763080     0.14900
N3546       N  0.88361207  0.02067120  0.28757186     0.74000
O3547       O  0.89518191  0.53985991  0.19234391    -0.39500
O3548       O  0.84805632  0.51743018  0.19298276    -0.39400
O3549       O  0.90291138  0.04096619  0.29492424    -0.40100
O3550       O  0.86156431  0.01024570  0.29897269    -0.40200
C3551       C  0.91395435  0.75079875  0.25157489    -0.12500
C3552       C  0.88239322  0.74046948  0.25437008     0.04500
C3553       C  0.86291723  0.75693549  0.26873381    -0.07800
C3554       C  0.87463763  0.78484287  0.27860344    -0.08500
C3555       C  0.90577336  0.79592367  0.27472644    -0.03100
C3556       C  0.92564948  0.77803358  0.26152202     0.03800
N3557       N  0.95734423  0.78841002  0.25697062     0.66300
H3558       H  0.92965543  0.73812489  0.24103307     0.15200
H3559       H  0.85881327  0.79890133  0.28830769     0.14900
N3560       N  0.83076628  0.74707138  0.27240623     0.74000
O3561       O  0.98040195  0.77519796  0.26604983    -0.39500
O3562       O  0.96248320  0.80360454  0.24056809    -0.39400
O3563       O  0.82478517  0.72873252  0.28729871    -0.40100
O3564       O  0.80817919  0.76195048  0.26390360    -0.40200
C3565       C  0.66042751  0.59455906  0.35965697    -0.12500
C3566       C  0.62859979  0.60037631  0.35395970     0.04500
C3567       C  0.60629401  0.60801662  0.36965311    -0.07800
C3568       C  0.61555214  0.60736033  0.39039676    -0.08500
C3569       C  0.64708843  0.60043023  0.39600795    -0.03100
C3570       C  0.66982992  0.59478421  0.38033253     0.03800
N3571       N  0.70213700  0.58689451  0.38517662     0.66300
H3572       H  0.67810829  0.58884289  0.34801920     0.15200
H3573       H  0.59789946  0.61217880  0.40221828     0.14900
N3574       N  0.57393048  0.61570262  0.36492581     0.74000
O3575       O  0.70977718  0.55789926  0.38798061    -0.39500
O3576       O  0.72372628  0.60769324  0.38277215    -0.39400
O3577       O  0.55242663  0.59485573  0.36746014    -0.40100
O3578       O  0.56620493  0.64464405  0.36199871    -0.40200
C3579       C  0.64299674  0.71688141  0.46733348    -0.12500
C3580       C  0.66827201  0.69964840  0.47623498     0.04500
C3581       C  0.68262784  0.71215821  0.49411305    -0.07800
C3582       C  0.66947018  0.73854252  0.50411135    -0.08500
C3583       C  0.64287328  0.75481966  0.49631945    -0.03100
C3584       C  0.63024879  0.74451287  0.47721037     0.03800
N3585       N  0.60301964  0.75993470  0.46854999     0.66300
H3586       H  0.63145514  0.70748009  0.45370579     0.15200
H3587       H  0.68044320  0.74611077  0.51839535     0.14900
N3588       N  0.70995960  0.69720225  0.50303249     0.74000
O3589       O  0.57544882  0.75239820  0.47469144    -0.39500
O3590       O  0.60612134  0.77650419  0.45249594    -0.39400
O3591       O  0.73718416  0.70839237  0.49893150    -0.40100
O3592       O  0.70650146  0.68003947  0.51881183    -0.40200
C3593       C  0.60920049  0.00162607  0.51514396    -0.12500
C3594       C  0.64179449  0.50717043  0.50763341     0.04500
C3595       C  0.66372327  0.48261787  0.51170933    -0.07800
C3596       C  0.65259062  0.95119877  0.51841453    -0.08500
C3597       C  0.62042337  0.94587622  0.52374706    -0.03100
C3598       C  0.59893045  0.97195203  0.52309540     0.03800
N3599       N  0.56617933  0.96798334  0.52866266     0.66300
H3600       H  0.59203627  0.02088717  0.51327632     0.15200
H3601       H  0.66974711  0.93173317  0.51934130     0.14900
N3602       N  0.69681525  0.48652842  0.50706027     0.74000
O3603       O  0.55682666  0.97693456  0.54622697    -0.39500
O3604       O  0.54587439  0.96145940  0.51497818    -0.39400
O3605       O  0.71521797  0.49823793  0.52046095    -0.40100
O3606       O  0.70843708  0.47343499  0.49119607    -0.40200
C3607       C  0.85661737  0.88318956  0.38673033    -0.12500
C3608       C  0.88076190  0.88826706  0.40130132     0.04500
C3609       C  0.91280229  0.88920016  0.39448891    -0.07800
C3610       C  0.91983448  0.88696755  0.37340755    -0.08500
C3611       C  0.89541314  0.88422939  0.35875491    -0.03100
C3612       C  0.86359820  0.88135652  0.36570417     0.03800
N3613       N  0.83794649  0.87687017  0.35159979     0.66300
H3614       H  0.83188475  0.88195405  0.39156897     0.15200
H3615       H  0.94444681  0.88906645  0.36844221     0.14900
N3616       N  0.93848414  0.89263289  0.40871978     0.74000
O3617       O  0.83001171  0.84868156  0.34648743    -0.39500
O3618       O  0.81908327  0.89986380  0.34819033    -0.39400
O3619       O  0.95338178  0.86797342  0.41456727    -0.40100
O3620       O  0.95013007  0.92012401  0.41213696    -0.40200
C3621       C  0.72887529  0.98949020  0.44157081    -0.12500
C3622       C  0.73790714  0.51936581  0.43872026     0.04500
C3623       C  0.77054504  0.52534718  0.43492587    -0.07800
C3624       C  0.79265123  0.50008391  0.43564134    -0.08500
C3625       C  0.78445235  0.97153603  0.44200359    -0.03100
C3626       C  0.75136219  0.96448351  0.44224989     0.03800
N3627       N  0.73995166  0.93214139  0.44342689     0.66300
H3628       H  0.70379679  0.98335979  0.44261627     0.15200
H3629       H  0.81766200  0.50568525  0.43340893     0.14900
N3630       N  0.78173791  0.55694555  0.43029832     0.74000
O3631       O  0.73334755  0.92021186  0.46070597    -0.39500
O3632       O  0.73046834  0.91815787  0.42730707    -0.39400
O3633       O  0.79611632  0.57311180  0.44387802    -0.40100
O3634       O  0.78252202  0.56609707  0.41185728    -0.40200
C3635       C  0.75654985  0.84464078  0.50232034    -0.12500
C3636       C  0.77100087  0.87267006  0.50986760     0.04500
C3637       C  0.75804947  0.88753996  0.52759829    -0.07800
C3638       C  0.72900964  0.87600939  0.53584755    -0.08500
C3639       C  0.71361037  0.84935172  0.52686706    -0.03100
C3640       C  0.72853071  0.83294540  0.51054094     0.03800
N3641       N  0.71462923  0.80514752  0.50115333     0.66300
H3642       H  0.76649316  0.83177650  0.48925773     0.15200
H3643       H  0.71761852  0.88896249  0.54835714     0.14900
N3644       N  0.77297077  0.91498627  0.53668121     0.74000
O3645       O  0.69642597  0.80880951  0.48592724    -0.39500
O3646       O  0.72838926  0.77845131  0.50343732    -0.39400
O3647       O  0.76205911  0.94268832  0.53319125    -0.40100
O3648       O  0.79268107  0.91112716  0.55107952    -0.40200
C3649       C  0.96494076  0.85690781  0.48585594    -0.12500
C3650       C  0.95977725  0.88920329  0.48038776     0.04500
C3651       C  0.98629582  0.90981868  0.47823889    -0.07800
C3652       C  0.01670037  0.89884633  0.48387413    -0.08500
C3653       C  0.51956859  0.86119342  0.49710918    -0.03100
C3654       C  0.49167834  0.84402885  0.50181539     0.03800
N3655       N  0.49237711  0.81680744  0.51510357     0.66300
H3656       H  0.94507547  0.84026919  0.48684215     0.15200
H3657       H  0.03648712  0.91564192  0.48406113     0.14900
N3658       N  0.98242528  0.94262475  0.47235900     0.74000
O3659       O  0.48437077  0.82031760  0.53367268    -0.39500
O3660       O  0.49349516  0.78889474  0.50743452    -0.39400
O3661       O  0.97940205  0.96407627  0.48601809    -0.40100
O3662       O  0.98802632  0.95070487  0.45404892    -0.40200
C3663       C  0.51006273  0.77493704  0.56758520    -0.12500
C3664       C  0.54156252  0.76667409  0.56221117     0.04500
C3665       C  0.54844988  0.73377279  0.55835638    -0.07800
C3666       C  0.52406034  0.71080608  0.55880496    -0.08500
C3667       C  0.99051315  0.72241633  0.56006144    -0.03100
C3668       C  0.98290578  0.75462073  0.56551143     0.03800
N3669       N  0.95135264  0.76349162  0.57165584     0.66300
H3670       H  0.50410743  0.79975997  0.57097060     0.15200
H3671       H  0.02898745  0.69117369  0.55030847     0.14900
N3672       N  0.57990393  0.72304150  0.55323918     0.74000
O3673       O  0.94400016  0.76312394  0.59046245    -0.39500
O3674       O  0.93341786  0.77777397  0.55911930    -0.39400
O3675       O  0.59729894  0.71120996  0.56706484    -0.40100
O3676       O  0.58740522  0.71890097  0.53461972    -0.40200
C3677       C  0.54618538  0.58002710  0.48714772    -0.12500
C3678       C  0.56616283  0.60454991  0.48016862     0.04500
C3679       C  0.55565467  0.63676275  0.48119653    -0.07800
C3680       C  0.52602357  0.64408024  0.49007192    -0.08500
C3681       C  0.00758580  0.61951285  0.49609369    -0.03100
C3682       C  0.01810691  0.58718480  0.49601911     0.03800
N3683       N  0.00053675  0.56278969  0.50643151     0.66300
H3684       H  0.55438764  0.55529789  0.48691044     0.15200
H3685       H  0.51864391  0.66898559  0.49147344     0.14900
N3686       N  0.57575030  0.66236077  0.47441972     0.74000
O3687       O  0.00920487  0.55445802  0.52416310    -0.39500
O3688       O  0.98167167  0.54504951  0.49640596    -0.39400
O3689       O  0.58608666  0.66264845  0.45619483    -0.40100
O3690       O  0.58513632  0.68334679  0.48710622    -0.40200
C3691       C  0.77535208  0.64719830  0.49543393    -0.12500
C3692       C  0.75819691  0.62124928  0.50369983     0.04500
C3693       C  0.76974212  0.60668673  0.52180586    -0.07800
C3694       C  0.79921250  0.61677331  0.53016237    -0.08500
C3695       C  0.81649897  0.64194975  0.52106221    -0.03100
C3696       C  0.80368469  0.65782925  0.50403603     0.03800
N3697       N  0.81963478  0.68461602  0.49493332     0.66300
H3698       H  0.76698217  0.65950460  0.48184705     0.15200
H3699       H  0.80911381  0.60421861  0.54321722     0.14900
N3700       N  0.75278547  0.58096413  0.53130825     0.74000
O3701       O  0.83866020  0.67988516  0.48016944    -0.39500
O3702       O  0.80880574  0.71252689  0.49804491    -0.39400
O3703       O  0.76273487  0.55250734  0.52917752    -0.40100
O3704       O  0.73229075  0.58722936  0.54498944    -0.40200
C3705       C  0.90324815  0.99223045  0.52517081    -0.12500
C3706       C  0.87798070  0.99226622  0.51100607     0.04500
C3707       C  0.86124752  0.52174109  0.50441461    -0.07800
C3708       C  0.87259893  0.55016163  0.51313956    -0.08500
C3709       C  0.89942518  0.55028405  0.52606345    -0.03100
C3710       C  0.91245400  0.52074369  0.53237992     0.03800
N3711       N  0.93894935  0.51947048  0.54610760     0.66300
H3712       H  0.91603791  0.97012432  0.52824527     0.15200
H3713       H  0.86160599  0.57265689  0.50865118     0.14900
N3714       N  0.83414752  0.02162284  0.49416266     0.74000
O3715       O  0.96574951  0.51042245  0.53937874    -0.39500
O3716       O  0.93372411  0.51868582  0.56519222    -0.39400
O3717       O  0.80644159  0.01896874  0.50158891    -0.40100
O3718       O  0.84054280  0.53214708  0.47200999    -0.40200
C3719       C  0.86257992  0.75731597  0.50942198    -0.12500
C3720       C  0.88788356  0.74102546  0.49990852     0.04500
C3721       C  0.89852242  0.75162601  0.48045233    -0.07800
C3722       C  0.88583206  0.78012506  0.47206161    -0.08500
C3723       C  0.86192759  0.79734671  0.48257676    -0.03100
C3724       C  0.84926250  0.78458616  0.50088385     0.03800
N3725       N  0.82296607  0.79932128  0.51134417     0.66300
H3726       H  0.85255984  0.74870794  0.52374910     0.15200
H3727       H  0.89594641  0.78974105  0.45804828     0.14900
N3728       N  0.92313158  0.73488630  0.46961185     0.74000
O3729       O  0.79620340  0.78550425  0.51065409    -0.39500
O3730       O  0.82844816  0.81882707  0.52583882    -0.39400
O3731       O  0.91589440  0.71663315  0.45478709    -0.40100
O3732       O  0.95186510  0.74290734  0.47225236    -0.40200
C3733       C  0.99536141  0.72125810  0.93793098    -0.12500
C3734       C  0.52420851  0.72754141  0.94029530     0.04500
C3735       C  0.53122607  0.76089962  0.93977275    -0.07800
C3736       C  0.50637287  0.78388599  0.93936601    -0.08500
C3737       C  0.97756099  0.77729338  0.94101253    -0.03100
C3738       C  0.97072095  0.74425975  0.93771831     0.03800
N3739       N  0.93881820  0.73332573  0.93442531     0.66300
H3740       H  0.98903992  0.69611643  0.93623036     0.15200
H3741       H  0.51269574  0.80914635  0.93974558     0.14900
N3742       N  0.56340652  0.77214917  0.94042894     0.74000
O3743       O  0.92838273  0.73084816  0.91631724    -0.39500
O3744       O  0.92356199  0.72052803  0.94897721    -0.39400
O3745       O  0.57710450  0.78021544  0.92396627    -0.40100
O3746       O  0.57539465  0.78044532  0.95740159    -0.40200
C3747       C  0.63231616  0.88817125  0.14256503    -0.12500
C3748       C  0.64266878  0.85658300  0.14645828     0.04500
C3749       C  0.64911327  0.83607904  0.12964666    -0.07800
C3750       C  0.64714073  0.84788426  0.10957141    -0.08500
C3751       C  0.63864011  0.88000370  0.10562775    -0.03100
C3752       C  0.62976621  0.89983092  0.12235449     0.03800
N3753       N  0.62027406  0.93240991  0.11923666     0.66300
H3754       H  0.62714031  0.90421770  0.15532504     0.15200
H3755       H  0.65401911  0.83218210  0.09696110     0.14900
N3756       N  0.66124409  0.80436316  0.13270318     0.74000
O3757       O  0.59100118  0.93901490  0.11766281    -0.39500
O3758       O  0.64005922  0.95478865  0.12229735    -0.39400
O3759       O  0.64357611  0.78040710  0.12916440    -0.40100
O3760       O  0.69088426  0.80029809  0.13484787    -0.40200
C3761       C  0.52542290  0.88801023  0.03052280    -0.12500
C3762       C  0.54890343  0.90121397  0.01750709     0.04500
C3763       C  0.54183646  0.90377238  0.99625921    -0.07800
C3764       C  0.51350684  0.89146935  0.98848185    -0.08500
C3765       C  0.98981295  0.88117035  0.00570861    -0.03100
C3766       C  0.49640498  0.87567000  0.02243500     0.03800
N3767       N  0.97534641  0.85947183  0.03978637     0.66300
H3768       H  0.53029165  0.88560121  0.04677506     0.15200
H3769       H  0.50984950  0.89344993  0.97206159     0.14900
N3770       N  0.56337771  0.91849897  0.98196362     0.74000
O3771       O  0.97928400  0.82973326  0.04255435    -0.39500
O3772       O  0.95687121  0.87499406  0.05153384    -0.39400
O3773       O  0.55804694  0.94689809  0.97620298    -0.40100
O3774       O  0.58111662  0.90084402  0.97099101    -0.40200
C3775       C  0.75917486  0.89755228  0.98530996    -0.12500
C3776       C  0.74006006  0.87472982  0.99518888     0.04500
C3777       C  0.74828287  0.84197211  0.99392146    -0.07800
C3778       C  0.77731620  0.83291491  0.98508628    -0.08500
C3779       C  0.79854843  0.85600576  0.97773894    -0.03100
C3780       C  0.78827726  0.88837970  0.97605603     0.03800
N3781       N  0.80640698  0.91155028  0.96448535     0.66300
H3782       H  0.75180213  0.92251378  0.98535077     0.15200
H3783       H  0.78396266  0.80803449  0.98475564     0.14900
N3784       N  0.72746670  0.81775817  0.00187480     0.74000
O3785       O  0.82587364  0.90226122  0.95084855    -0.39500
O3786       O  0.79932873  0.94104572  0.96541368    -0.39400
O3787       O  0.70093879  0.81247436  0.99337024    -0.40100
O3788       O  0.73489158  0.80268674  0.01793563    -0.40200
C3789       C  0.59485786  0.77011365  0.00554628    -0.12500
C3790       C  0.61494111  0.74394235  0.00863564     0.04500
C3791       C  0.64276675  0.74791587  0.02054246    -0.07800
C3792       C  0.65132542  0.77855634  0.02767259    -0.08500
C3793       C  0.63282954  0.80535987  0.02267644    -0.03100
C3794       C  0.60359359  0.80070374  0.01232649     0.03800
N3795       N  0.58251059  0.82672358  0.00826622     0.66300
H3796       H  0.57306146  0.76709447  0.99682065     0.15200
H3797       H  0.67377913  0.78170888  0.03566337     0.14900
N3798       N  0.66447498  0.72199233  0.02348289     0.74000
O3799       O  0.58457268  0.84072485  0.99118529    -0.39500
O3800       O  0.55646044  0.82782262  0.01797033    -0.39400
O3801       O  0.69019913  0.72161549  0.01336799    -0.40100
O3802       O  0.66222968  0.70537909  0.03957734    -0.40200
C3803       C  0.58090374  0.53600962  0.99151396    -0.12500
C3804       C  0.60038766  0.55001048  0.97648282     0.04500
C3805       C  0.63009188  0.53588844  0.97191922    -0.07800
C3806       C  0.64064542  0.50935639  0.98327887    -0.08500
C3807       C  0.62345041  0.99665025  0.99890981    -0.03100
C3808       C  0.59219448  0.00888348  0.00134174     0.03800
N3809       N  0.57105406  0.99707543  0.01688293     0.66300
H3810       H  0.55829174  0.54715789  0.99549731     0.15200
H3811       H  0.66724912  0.00019002  0.98153753     0.14900
N3812       N  0.65123404  0.55032458  0.95746627     0.74000
O3813       O  0.57318032  0.00821290  0.03490266    -0.39500
O3814       O  0.54600955  0.98231843  0.01171030    -0.39400
O3815       O  0.67534508  0.56539037  0.96392957    -0.40100
O3816       O  0.64974058  0.54221512  0.93878641    -0.40200
C3817       C  0.86948597  0.58539893  0.11798268    -0.12500
C3818       C  0.87017864  0.60982361  0.10337295     0.04500
C3819       C  0.87412060  0.64192623  0.11010923    -0.07800
C3820       C  0.87493133  0.64907560  0.13119940    -0.08500
C3821       C  0.87129158  0.62482762  0.14600096    -0.03100
C3822       C  0.86951538  0.59244508  0.13904523     0.03800
N3823       N  0.86655121  0.56611163  0.15283888     0.66300
H3824       H  0.86643623  0.56062260  0.11308554     0.15200
H3825       H  0.87680963  0.67402700  0.13594191     0.14900
N3826       N  0.87673903  0.66763936  0.09573431     0.74000
O3827       O  0.83920112  0.55932013  0.15970042    -0.39500
O3828       O  0.88736177  0.54420072  0.15196549    -0.39400
O3829       O  0.85330835  0.68614329  0.09292609    -0.40100
O3830       O  0.90384169  0.67534540  0.08886681    -0.40200
C3831       C  0.78121663  0.99139128  0.06539412    -0.12500
C3832       C  0.77451490  0.52189927  0.06227453     0.04500
C3833       C  0.74208738  0.52975755  0.05889308    -0.07800
C3834       C  0.71855835  0.50556042  0.05856715    -0.08500
C3835       C  0.72513629  0.97513251  0.06173132    -0.03100
C3836       C  0.75767978  0.96720353  0.06497960     0.03800
N3837       N  0.76764846  0.93459869  0.06743557     0.66300
H3838       H  0.80582928  0.98439798  0.06768646     0.15200
H3839       H  0.69420546  0.51233027  0.05507604     0.14900
N3840       N  0.73263125  0.56184350  0.05432309     0.74000
O3841       O  0.77691641  0.91878803  0.05192190    -0.39500
O3842       O  0.77404384  0.92438932  0.08516845    -0.39400
O3843       O  0.72845706  0.56958650  0.03580890    -0.40100
O3844       O  0.71983850  0.57855063  0.06832436    -0.40200
C3845       C  0.70262626  0.65040074  0.00775253    -0.12500
C3846       C  0.69731095  0.64829388  0.98661033     0.04500
C3847       C  0.72257929  0.63856177  0.97368629    -0.07800
C3848       C  0.75188255  0.62940351  0.98221702    -0.08500
C3849       C  0.75669435  0.63098363  0.00344785    -0.03100
C3850       C  0.73227044  0.64363988  0.01612416     0.03800
N3851       N  0.73764065  0.65162395  0.03725671     0.66300
H3852       H  0.68355725  0.65795502  0.01792092     0.15200
H3853       H  0.77058421  0.62027297  0.97223954     0.14900
N3854       N  0.71862806  0.63552966  0.95213557     0.74000
O3855       O  0.75470320  0.67572034  0.04159382    -0.39500
O3856       O  0.71966059  0.64005999  0.05091242    -0.39400
O3857       O  0.72966916  0.65761282  0.94099585    -0.40100
O3858       O  0.71639992  0.60754398  0.94473657    -0.40200
C3859       C  0.96902956  0.61207522  0.03089690    -0.12500
C3860       C  0.95061279  0.59065712  0.01903645     0.04500
C3861       C  0.96211580  0.58102200  0.99962514    -0.07800
C3862       C  0.98936097  0.59515985  0.99151692    -0.08500
C3863       C  0.50723973  0.61812832  0.00339230    -0.03100
C3864       C  0.49539927  0.62924112  0.02245630     0.03800
N3865       N  0.50945495  0.65636121  0.03251729     0.66300
H3866       H  0.96079289  0.61925954  0.04601862     0.15200
H3867       H  0.99692480  0.58740079  0.97634756     0.14900
N3868       N  0.94556702  0.55761035  0.98749619     0.74000
O3869       O  0.50347768  0.68441576  0.02631524    -0.39500
O3870       O  0.53069871  0.65214847  0.04592621    -0.39400
O3871       O  0.93075006  0.56642298  0.97164350    -0.40100
O3872       O  0.95152813  0.52815447  0.99000710    -0.40200
C3873       C  0.87360079  0.50480860  0.97348095    -0.12500
C3874       C  0.85568773  0.50456908  0.99183192     0.04500
C3875       C  0.84596486  0.97782950  0.99985066    -0.07800
C3876       C  0.85768348  0.94888133  0.99221537    -0.08500
C3877       C  0.88020655  0.94787452  0.97620147    -0.03100
C3878       C  0.88809735  0.97674591  0.96613681     0.03800
N3879       N  0.91033165  0.97693665  0.94949342     0.66300
H3880       H  0.88043921  0.52753482  0.96674330     0.15200
H3881       H  0.85024167  0.92691890  0.99973777     0.14900
N3882       N  0.82539839  0.97728846  0.01736563     0.74000
O3883       O  0.89300795  0.47597114  0.92956970    -0.39500
O3884       O  0.93932591  0.98305002  0.95293026    -0.39400
O3885       O  0.79559071  0.97653038  0.01472246    -0.40100
O3886       O  0.83673447  0.96933569  0.03453367    -0.40200
C3887       C  0.90356833  0.73390529  0.01089558    -0.12500
C3888       C  0.87956657  0.75698784  0.00842293     0.04500
C3889       C  0.84833299  0.74982399  0.01532067    -0.07800
C3890       C  0.84145793  0.71966209  0.02376154    -0.08500
C3891       C  0.86492728  0.69600372  0.02505069    -0.03100
C3892       C  0.89657633  0.70379055  0.01945151     0.03800
N3893       N  0.92168957  0.68104375  0.02224655     0.66300
H3894       H  0.92762570  0.73899126  0.00569561     0.15200
H3895       H  0.81696044  0.71379796  0.02761068     0.14900
N3896       N  0.82227168  0.77083541  0.01122970     0.74000
O3897       O  0.93829068  0.67180890  0.00712647    -0.39500
O3898       O  0.92650848  0.66931731  0.03979826    -0.39400
O3899       O  0.79880093  0.75990465  0.00128379    -0.40100
O3900       O  0.81876489  0.79591512  0.02200212    -0.40200
C3901       C  0.88888636  0.87192773  0.86224107    -0.12500
C3902       C  0.85693852  0.86602706  0.85696570     0.04500
C3903       C  0.83511236  0.85847285  0.87275626    -0.07800
C3904       C  0.84586638  0.85498847  0.89306792    -0.08500
C3905       C  0.87821307  0.85923563  0.89822086    -0.03100
C3906       C  0.89959541  0.86897587  0.88256547     0.03800
N3907       N  0.93269505  0.87403955  0.88667858     0.66300
H3908       H  0.90603283  0.87761838  0.85030531     0.15200
H3909       H  0.82885865  0.84796194  0.90477891     0.14900
N3910       N  0.80251656  0.85148051  0.86818749     0.74000
O3911       O  0.95207831  0.85104908  0.88447203    -0.39500
O3912       O  0.94319400  0.90236425  0.88841197    -0.39400
O3913       O  0.79398497  0.82268955  0.86537761    -0.40100
O3914       O  0.78160461  0.87292668  0.87089000    -0.40200
C3915       C  0.65969790  0.63777940  0.87064439    -0.12500
C3916       C  0.63565010  0.63670632  0.85588030     0.04500
C3917       C  0.60352395  0.63501399  0.86236017    -0.07800
C3918       C  0.59606099  0.63756298  0.88326421    -0.08500
C3919       C  0.62012052  0.64182476  0.89802335    -0.03100
C3920       C  0.65223720  0.64043712  0.89150435     0.03800
N3921       N  0.67787743  0.64140628  0.90568479     0.66300
H3922       H  0.68453462  0.63857341  0.86596814     0.15200
H3923       H  0.57117244  0.63750812  0.88782551     0.14900
N3924       N  0.57818645  0.63120744  0.84789331     0.74000
O3925       O  0.69422142  0.61618813  0.90778946    -0.39500
O3926       O  0.69054171  0.66827402  0.90953497    -0.39400
O3927       O  0.56842614  0.60332337  0.84344918    -0.40100
O3928       O  0.56175038  0.65528962  0.84280052    -0.40200
C3929       C  0.71380472  0.75826512  0.80955177    -0.12500
C3930       C  0.72415484  0.72695588  0.81383544     0.04500
C3931       C  0.75661688  0.72235864  0.81881843    -0.07800
C3932       C  0.77831283  0.74838458  0.81794563    -0.08500
C3933       C  0.76825556  0.77968034  0.81264839    -0.03100
C3934       C  0.73513512  0.78433442  0.80895553     0.03800
N3935       N  0.72262459  0.81508603  0.80355142     0.66300
H3936       H  0.68903159  0.76243486  0.80563663     0.15200
H3937       H  0.80321539  0.74394958  0.82132462     0.14900
N3938       N  0.76765247  0.69154270  0.82535679     0.74000
O3939       O  0.71842447  0.82164420  0.78486662    -0.39500
O3940       O  0.70913733  0.83210203  0.81712865    -0.39400
O3941       O  0.78701592  0.67577766  0.81436944    -0.40100
O3942       O  0.75682347  0.67935683  0.84166785    -0.40200
C3943       C  0.62105562  0.89695158  0.63585477    -0.12500
C3944       C  0.60395937  0.87590660  0.64871591     0.04500
C3945       C  0.59348755  0.84624351  0.64042284    -0.07800
C3946       C  0.59914029  0.83878930  0.61970111    -0.08500
C3947       C  0.61436076  0.86064599  0.60667004    -0.03100
C3948       C  0.62595890  0.88971778  0.61494986     0.03800
N3949       N  0.64316491  0.91184488  0.60240279     0.66300
H3950       H  0.62978058  0.91964696  0.64187736     0.15200
H3951       H  0.59015897  0.81628107  0.61351330     0.14900
N3952       N  0.57783892  0.82286028  0.65282947     0.74000
O3953       O  0.62897983  0.93586670  0.59498603    -0.39500
O3954       O  0.67324560  0.91067408  0.60192770    -0.39400
O3955       O  0.54792451  0.82416604  0.65490599    -0.40100
O3956       O  0.59193453  0.79662549  0.65612733    -0.40200
C3957       C  0.96548585  0.85583372  0.77926932    -0.12500
C3958       C  0.93929059  0.87503099  0.77421578     0.04500
C3959       C  0.94476426  0.90406816  0.76334077    -0.07800
C3960       C  0.47797729  0.91536268  0.75610528    -0.08500
C3961       C  0.50231870  0.89371695  0.76059464    -0.03100
C3962       C  0.49592973  0.86715471  0.77323723     0.03800
N3963       N  0.51962761  0.84321877  0.77679288     0.66300
H3964       H  0.96210409  0.83408971  0.78805020     0.15200
H3965       H  0.48279605  0.93564717  0.74616203     0.14900
N3966       N  0.91990676  0.92688159  0.75985984     0.74000
O3967       O  0.53634916  0.84484558  0.79285189    -0.39500
O3968       O  0.51795986  0.81694947  0.76704889    -0.39400
O3969       O  0.92002465  0.95268426  0.77013752    -0.40100
O3970       O  0.90479872  0.92590102  0.74312370    -0.40200
C3971       C  0.71281093  0.90634614  0.73035259    -0.12500
C3972       C  0.69103211  0.88125363  0.72799512     0.04500
C3973       C  0.70051383  0.84956565  0.73269324    -0.07800
C3974       C  0.73073813  0.84401114  0.74111370    -0.08500
C3975       C  0.75079973  0.86988115  0.74585284    -0.03100
C3976       C  0.74220552  0.90115365  0.73966263     0.03800
N3977       N  0.76253594  0.92819602  0.74312274     0.66300
H3978       H  0.70584770  0.93071366  0.72679119     0.15200
H3979       H  0.73755584  0.81978146  0.74530215     0.14900
N3980       N  0.67945334  0.82301792  0.72958334     0.74000
O3981       O  0.77225813  0.94382784  0.72777319    -0.39500
O3982       O  0.76228359  0.94174184  0.76052245    -0.39400
O3983       O  0.68272561  0.80583219  0.71368759    -0.40100
O3984       O  0.66370605  0.81226800  0.74459164    -0.40200
C3985       C  0.61319792  0.74408308  0.73190244    -0.12500
C3986       C  0.61462169  0.74045217  0.75334317     0.04500
C3987       C  0.60069146  0.76423848  0.76602541    -0.07800
C3988       C  0.58750423  0.79137558  0.75733468    -0.08500
C3989       C  0.58818670  0.79675148  0.73604209    -0.03100
C3990       C  0.60034488  0.77221217  0.72317428     0.03800
N3991       N  0.60087764  0.77569851  0.70144436     0.66300
H3992       H  0.62308747  0.72562528  0.72194191     0.15200
H3993       H  0.57829714  0.80940042  0.76783024     0.14900
N3994       N  0.60006587  0.76178846  0.78795186     0.74000
O3995       O  0.62585779  0.78607160  0.69290354    -0.39500
O3996       O  0.58058852  0.76055325  0.69087172    -0.39400
O3997       O  0.62128516  0.77596912  0.79832034    -0.40100
O3998       O  0.57463537  0.75325258  0.79676766    -0.40200
C3999       C  0.61962027  0.50013045  0.77538437    -0.12500
C4000       C  0.62935986  0.98879341  0.75329108     0.04500
C4001       C  0.65012016  0.00927788  0.74257400    -0.07800
C4002       C  0.67195238  0.53339738  0.75969413    -0.08500
C4003       C  0.65533973  0.54631050  0.77639655    -0.03100
C4004       C  0.63008967  0.52860423  0.78510069     0.03800
N4005       N  0.61441447  0.53963412  0.80333958     0.66300
H4006       H  0.59929280  0.48741398  0.78167056     0.15200
H4007       H  0.69185622  0.54652941  0.75327188     0.14900
N4008       N  0.66154875  0.00167553  0.72240468     0.74000
O4009       O  0.58656494  0.55097098  0.80230177    -0.39500
O4010       O  0.62555687  0.53192803  0.82061336    -0.39400
O4011       O  0.64951793  0.01572382  0.70714389    -0.40100
O4012       O  0.68834361  0.98818601  0.72044422    -0.40200
C4013       C  0.87987225  0.63499789  0.64085282    -0.12500
C4014       C  0.90484256  0.61816667  0.65030187     0.04500
C4015       C  0.93115840  0.60835896  0.63827358    -0.07800
C4016       C  0.93233256  0.61556846  0.61738623    -0.08500
C4017       C  0.90802693  0.63326270  0.60779462    -0.03100
C4018       C  0.88143670  0.64302834  0.61983434     0.03800
N4019       N  0.85645128  0.66203540  0.61127854     0.66300
H4020       H  0.85968941  0.64301392  0.64997526     0.15200
H4021       H  0.95299158  0.60754648  0.60872334     0.14900
N4022       N  0.95697758  0.59066353  0.64703463     0.74000
O4023       O  0.83105517  0.64858448  0.60539995    -0.39500
O4024       O  0.85707286  0.69219188  0.61353517    -0.39400
O4025       O  0.95750354  0.56043032  0.64530599    -0.40100
O4026       O  0.98191265  0.60533817  0.65254786    -0.40200
C4027       C  0.48856526  0.97025747  0.68928461    -0.12500
C4028       C  0.52106899  0.97551524  0.69352411     0.04500
C4029       C  0.53087015  0.00733591  0.69820132    -0.07800
C4030       C  0.00478628  0.53165226  0.69727218    -0.08500
C4031       C  0.97177544  0.52531091  0.69737471    -0.03100
C4032       C  0.47166091  0.49734252  0.69569177     0.03800
N4033       N  0.92887621  0.48463373  0.69441868     0.66300
H4034       H  0.48031386  0.94615194  0.68577435     0.15200
H4035       H  0.01327140  0.55617208  0.69874616     0.14900
N4036       N  0.56287444  0.01434475  0.70425693     0.74000
O4037       O  0.42465166  0.48532708  0.67844410    -0.39500
O4038       O  0.91514503  0.47489044  0.71049222    -0.39400
O4039       O  0.58184066  0.02641314  0.69134681    -0.40100
O4040       O  0.56928374  0.01649688  0.72314576    -0.40200
C4041       C  0.83815257  0.96455254  0.75062032    -0.12500
C4042       C  0.84198283  0.95720536  0.77150734     0.04500
C4043       C  0.85631743  0.98065059  0.78433144    -0.07800
C4044       C  0.86707564  0.50680034  0.77672052    -0.08500
C4045       C  0.85887770  0.51553508  0.75647968    -0.03100
C4046       C  0.84869216  0.99315396  0.74217502     0.03800
N4047       N  0.84196038  0.99880005  0.72095733     0.66300
H4048       H  0.82758920  0.94731919  0.74019129     0.15200
H4049       H  0.88409668  0.52115993  0.78527159     0.14900
N4050       N  0.86154475  0.97445293  0.80560756     0.74000
O4051       O  0.85684165  0.98313436  0.70731789    -0.39500
O4052       O  0.81690399  0.01376707  0.71615401    -0.39400
O4053       O  0.88816524  0.96366389  0.81139881    -0.40100
O4054       O  0.84221338  0.98543809  0.81877338    -0.40200
C4055       C  0.86755399  0.75247176  0.73087919    -0.12500
C4056       C  0.87888712  0.76441294  0.74979781     0.04500
C4057       C  0.90495383  0.74888339  0.75918813    -0.07800
C4058       C  0.91698405  0.72044674  0.75095236    -0.08500
C4059       C  0.90388093  0.70674083  0.73325878    -0.03100
C4060       C  0.87989440  0.72352238  0.72257931     0.03800
N4061       N  0.86592698  0.70992227  0.70450765     0.66300
H4062       H  0.84797660  0.76445571  0.72324699     0.15200
H4063       H  0.93566119  0.70799174  0.75916496     0.14900
N4064       N  0.91968876  0.76176441  0.77721018     0.74000
O4065       O  0.84337665  0.68998272  0.70611274    -0.39500
O4066       O  0.87951256  0.71359128  0.68736427    -0.39400
O4067       O  0.91349963  0.74953187  0.79446099    -0.40100
O4068       O  0.94417940  0.77910244  0.77526527    -0.40200
C4069       C  0.54237316  0.60470437  0.77644600    -0.12500
C4070       C  0.54983812  0.63693755  0.78116262     0.04500
C4071       C  0.52481379  0.65952525  0.78287789    -0.07800
C4072       C  0.99662008  0.65561730  0.76943374    -0.08500
C4073       C  0.98945418  0.62305335  0.76605249    -0.03100
C4074       C  0.51115956  0.59552917  0.77169846     0.03800
N4075       N  0.50466026  0.56320385  0.76538882     0.66300
H4076       H  0.56112979  0.58692071  0.77516809     0.15200
H4077       H  0.97915044  0.67379575  0.76564834     0.14900
N4078       N  0.53099614  0.69273650  0.78686055     0.74000
O4079       O  0.51448730  0.55312654  0.74818487    -0.39500
O4080       O  0.98755296  0.55158307  0.77909936    -0.39400
O4081       O  0.53539357  0.71148850  0.77194318    -0.40100
O4082       O  0.52475481  0.70428633  0.80438162    -0.40200
C4083       C  0.76475304  0.65975992  0.75228575    -0.12500
C4084       C  0.73927886  0.64179332  0.74464213     0.04500
C4085       C  0.74484923  0.61918521  0.72879710    -0.07800
C4086       C  0.77627124  0.61259699  0.72244607    -0.08500
C4087       C  0.80226101  0.62826442  0.73169776    -0.03100
C4088       C  0.79598846  0.65350069  0.74597379     0.03800
N4089       N  0.82095212  0.67207576  0.75515057     0.66300
H4090       H  0.76063655  0.67725673  0.76444031     0.15200
H4091       H  0.78038394  0.59363246  0.71126145     0.14900
N4092       N  0.71924376  0.60106272  0.72008289     0.74000
O4093       O  0.82394239  0.70111518  0.75002445    -0.39500
O4094       O  0.83233877  0.66319380  0.77212752    -0.39400
O4095       O  0.70292804  0.61337420  0.70589316    -0.40100
O4096       O  0.71852978  0.57100404  0.72251975    -0.40200
loop_ 
_geom_bond_atom_site_label_1 
_geom_bond_atom_site_label_2 
_geom_bond_distance 
_geom_bond_site_symmetry_2 
_ccdc_geom_bond_type 
O1           C16   1.257       .  A
O1           Al9   1.864       .  S
C2           O12   1.270       .  A
C2            O3   1.275       .  A
C2          C959   1.506       .  S
O3           Al5   1.950       .  S
O4            C6   1.253       .  A
O4           Al5   1.879       .  S
Al5          O13   1.902       .  S
Al5          O15   1.940       .  S
Al5          O14   1.783       .  S
C6           O19   1.255       .  A
C6          C973   1.484       .  S
O7           C17   1.261       .  A
O7           Al9   1.908       .  S
O8           C21   1.268       .  A
O8          Al18   1.932       .  S
Al9          O22   1.907       .  S
Al9          O19   1.916       .  S
Al9          O14   1.795       .  S
O10          C17   1.261       .  A
O10         Al18   1.900       .  S
O11          C20   1.251       .  A
O11         Al18   1.889       .  S
O12         Al18   1.903       .  S
O13          C20   1.252       .  A
O14         Al18   1.784       .  S
O15          C16   1.274       .  A
C16        C1015   1.482       .  S
C17        C1001   1.462       .  S
C20         C942   1.483       .  S
C21          O22   1.264       .  A
C21         C987   1.480       .  S
O23          C38   1.259       .  A
O23         Al31   1.871       .  S
C24          O34   1.271       .  A
C24          O25   1.275       .  A
C24         C956   1.507       .  S
O25         Al27   1.943       .  S
O26          C28   1.251       .  A
O26         Al27   1.876       .  S
Al27         O35   1.898       .  S
Al27         O37   1.936       .  S
Al27         O36   1.780       .  S
C28          O41   1.250       .  A
C28         C928   1.480       .  S
O29          C39   1.261       .  A
O29         Al31   1.902       .  S
O30          C43   1.270       .  A
O30         Al40   1.947       .  S
Al31         O44   1.875       .  S
Al31         O41   1.901       .  S
Al31         O36   1.790       .  S
O32          C39   1.262       .  A
O32         Al40   1.918       .  S
O33          C42   1.254       .  A
O33         Al40   1.908       .  S
O34         Al40   1.916       .  S
O35          C42   1.251       .  A
O36         Al40   1.793       .  S
O37          C38   1.273       .  A
C38         C900   1.477       .  S
C39         C889   1.462       .  S
C42         C872   1.497       .  S
C43          O44   1.261       .  A
C43         C917   1.486       .  S
O45          C60   1.259       .  A
O45         Al53   1.872       .  S
C46          O56   1.265       .  A
C46          O47   1.270       .  A
C46         C858   1.500       .  S
O47         Al49   1.941       .  S
O48          C50   1.252       .  A
O48         Al49   1.868       .  S
Al49         O57   1.872       .  S
Al49         O59   1.945       .  S
Al49         O58   1.766       .  S
C50          O63   1.262       .  A
C50         C914   1.478       .  S
O51          C61   1.264       .  A
O51         Al53   1.903       .  S
O52          C65   1.264       .  A
O52         Al62   1.921       .  S
Al53         O66   1.907       .  S
Al53         O63   1.942       .  S
Al53         O58   1.781       .  S
O54          C61   1.269       .  A
O54         Al62   1.935       .  S
O55          C64   1.265       .  A
O55         Al62   1.934       .  S
O56         Al62   1.907       .  S
O57          C64   1.252       .  A
O58         Al62   1.776       .  S
O59          C60   1.269       .  A
C60         C998   1.480       .  S
C61        C1012   1.469       .  S
C64         C844   1.480       .  S
C65          O66   1.265       .  A
C65         C931   1.468       .  S
O67          C82   1.256       .  A
O67         Al75   1.861       .  S
C68          O78   1.268       .  A
C68          O69   1.276       .  A
C68         C861   1.506       .  S
O69         Al71   1.951       .  S
O70          C72   1.251       .  A
O70         Al71   1.878       .  S
Al71         O79   1.873       .  S
Al71         O81   1.942       .  S
Al71         O80   1.768       .  S
C72          O85   1.258       .  A
C72         C984   1.489       .  S
O73          C83   1.266       .  A
O73         Al75   1.908       .  S
O74          C87   1.274       .  A
O74         Al84   1.959       .  S
Al75         O88   1.894       .  S
Al75         O85   1.937       .  S
Al75         O80   1.783       .  S
O76          C83   1.268       .  A
O76         Al84   1.931       .  S
O77          C86   1.259       .  A
O77         Al84   1.940       .  S
O78         Al84   1.904       .  S
O79          C86   1.249       .  A
O80         Al84   1.788       .  S
O81          C82   1.274       .  A
C82         C886   1.477       .  S
C83         C903   1.467       .  S
C86         C830   1.488       .  S
C87          O88   1.265       .  A
C87         C970   1.495       .  S
O89         C104   1.265       .  A
O89         Al97   1.916       .  S
C90         O100   1.272       .  A
C90          O91   1.264       .  A
C90         C760   1.500       .  S
O91         Al93   1.899       .  S
O92          C94   1.267       .  A
O92         Al93   1.921       .  S
Al93        O101   1.922       .  S
Al93        O103   1.929       .  S
Al93        O102   1.778       .  S
C94         O107   1.265   1_554  A
C94         C802   1.475   1_554  S
O95         C105   1.263       .  A
O95         Al97   1.940       .  S
O96         C109   1.268       .  A
O96        Al106   1.936       .  S
Al97        O110   1.873       .  S
Al97        O107   1.913   1_554  S
Al97        O102   1.785       .  S
O98         C105   1.250       .  A
O98        Al106   1.855       .  S
O99         C108   1.251       .  A
O99        Al106   1.880       .  S
O100       Al106   1.952       .  S
O101        C108   1.261       .  A
O102       Al106   1.778       .  S
O103        C104   1.266       .  A
C104        C788   1.479       .  S
C105        C777   1.478       .  S
C108        C746   1.479       .  S
C109        O110   1.259       .  A
C109        C819   1.473       .  S
O111        C126   1.259       .  A
O111       Al119   1.879       .  S
C112        O122   1.278       .  A
C112        O113   1.283       .  A
C112        C763   1.504       .  S
O113       Al115   1.946       .  S
O114        C116   1.256       .  A
O114       Al115   1.897       .  S
Al115       O123   1.923       .  S
Al115       O125   1.946       .  S
Al115       O124   1.795       .  S
C116        O129   1.250       .  A
C116        C735   1.479       .  S
O117        C127   1.247   1_556  A
O117       Al119   1.901   1_556  S
O118        C131   1.272       .  A
O118       Al128   1.909       .  S
Al119       O132   1.894       .  S
Al119       O129   1.881       .  S
Al119       O124   1.791       .  S
O120        C127   1.245       .  A
O120       Al128   1.873       .  S
O121        C130   1.241       .  A
O121       Al128   1.852       .  S
O122       Al128   1.923       .  S
O123        C130   1.250       .  A
O124       Al128   1.786       .  S
O125        C126   1.271       .  A
C126        C690   1.486       .  S
C127        C704   1.469   1_554  S
C130        C679   1.493       .  S
C131        O132   1.266       .  A
C131        C721   1.474       .  S
O133        C148   1.262       .  A
O133       Al141   1.894       .  S
C134        O144   1.273       .  A
C134        O135   1.273       .  A
C134        C665   1.508       .  S
O135       Al137   1.940       .  S
O136        C138   1.254       .  A
O136       Al137   1.889       .  S
Al137       O145   1.906       .  S
Al137       O147   1.924       .  S
Al137       O146   1.786       .  S
C138        O151   1.254   1_556  A
C138        C816   1.471   1_556  S
O139        C149   1.270   1_554  A
O139       Al141   1.948   1_554  S
O140        C153   1.272       .  A
O140       Al150   1.953       .  S
Al141       O154   1.887       .  S
Al141       O151   1.905   1_556  S
Al141       O146   1.796       .  S
O142        C149   1.262       .  A
O142       Al150   1.885       .  S
O143        C152   1.251       .  A
O143       Al150   1.899       .  S
O144       Al150   1.924       .  S
O145        C152   1.253       .  A
O146       Al150   1.784       .  S
O147        C148   1.267       .  A
C148        C707   1.476       .  S
C149        C693   1.500   1_556  S
C152        C833   1.492       .  S
C153        O154   1.260       .  A
C153        C805   1.483       .  S
O155        C170   1.256       .  A
O155       Al163   1.863       .  S
C156        O166   1.271       .  A
C156        O157   1.277       .  A
C156        C662   1.513       .  S
O157       Al159   1.962       .  S
O158        C160   1.254       .  A
O158       Al159   1.874       .  S
Al159       O167   1.902       .  S
Al159       O169   1.939       .  S
Al159       O168   1.790       .  S
C160        O173   1.253   1_556  A
C160        C718   1.466   1_556  S
O161        C171   1.261       .  A
O161       Al163   1.923       .  S
O162        C175   1.273       .  A
O162       Al172   1.939       .  S
Al163       O176   1.878       .  S
Al163       O173   1.896   1_556  S
Al163       O168   1.795       .  S
O164        C171   1.256       .  A
O164       Al172   1.886       .  S
O165        C174   1.253       .  A
O165       Al172   1.903       .  S
O166       Al172   1.908       .  S
O167        C174   1.251       .  A
O168       Al172   1.790       .  S
O169        C170   1.266       .  A
C170        C774   1.476       .  S
C171        C791   1.490   1_556  S
C174        C847   1.488       .  S
C175        O176   1.262       .  A
C175        C732   1.469       .  S
O177        C192   1.258       .  A
O177       Al185   1.876       .  S
C178        O188   1.275       .  A
C178        O179   1.277       .  A
C178        C595   1.499       .  S
O179       Al181   1.945       .  S
O180        C182   1.254       .  A
O180       Al181   1.874       .  S
Al181       O189   1.903       .  S
Al181       O191   1.927       .  S
Al181       O190   1.782       .  S
C182        O195   1.254       .  A
C182        C648   1.479       .  S
O183        C193   1.259       .  A
O183       Al185   1.912       .  S
O184        C197   1.273       .  A
O184       Al194   1.932       .  S
Al185       O198   1.898       .  S
Al185       O195   1.906       .  S
Al185       O190   1.787       .  S
O186        C193   1.257       .  A
O186       Al194   1.914       .  S
O187        C196   1.249       .  A
O187       Al194   1.899       .  S
O188       Al194   1.902       .  S
O189        C196   1.249       .  A
O190       Al194   1.790       .  S
O191        C192   1.266       .  A
C192        C623   1.467       .  S
C193        C609   1.475       .  S
C196        C945   1.473       .  S
C197        O198   1.268       .  A
C197        C637   1.475       .  S
O199        C214   1.259       .  A
O199       Al207   1.857       .  S
C200        O210   1.267       .  A
C200        O201   1.273       .  A
C200        C553   1.502       .  S
O201       Al203   1.938       .  S
O202        C204   1.253       .  A
O202       Al203   1.886       .  S
Al203       O211   1.892       .  S
Al203       O213   1.943       .  S
Al203       O212   1.788       .  S
C204        O217   1.250       .  A
C204        C634   1.469       .  S
O205        C215   1.263       .  A
O205       Al207   1.918       .  S
O206        C219   1.269       .  A
O206       Al216   1.944       .  S
Al207       O220   1.878       .  S
Al207       O217   1.885       .  S
Al207       O212   1.793       .  S
O208        C215   1.262       .  A
O208       Al216   1.888       .  S
O209        C218   1.254       .  A
O209       Al216   1.897       .  S
O210       Al216   1.905       .  S
O211        C218   1.251       .  A
O212       Al216   1.787       .  S
O213        C214   1.269       .  A
C214        C578   1.486       .  S
C215        C564   1.481       .  S
C218        C536   1.486       .  S
C219        O220   1.258       .  A
C219        C651   1.477       .  S
O221        C236   1.260       .  A
O221       Al229   1.880       .  S
C222        O232   1.266       .  A
C222        O223   1.269       .  A
C222        C550   1.504       .  S
O223       Al225   1.932       .  S
O224        C226   1.255       .  A
O224       Al225   1.894       .  S
Al225       O233   1.902       .  S
Al225       O235   1.939       .  S
Al225       O234   1.780       .  S
C226        O239   1.252       .  A
C226        C522   1.468       .  S
O227        C237   1.268       .  A
O227       Al229   1.929       .  S
O228        C241   1.274       .  A
O228       Al238   1.965       .  S
Al229       O242   1.870       .  S
Al229       O239   1.902       .  S
Al229       O234   1.788       .  S
O230        C237   1.266       .  A
O230       Al238   1.898       .  S
O231        C240   1.261       .  A
O231       Al238   1.930       .  S
O232       Al238   1.915       .  S
O233        C240   1.256       .  A
O234       Al238   1.785       .  S
O235        C236   1.269       .  A
C236        C606   1.471       .  S
C237        C620   1.483       .  S
C240        C497   1.488       .  S
C241        O242   1.255       .  A
C241        C508   1.485       .  S
O243        C258   1.258       .  A
O243       Al251   1.871       .  S
C244        O254   1.279       .  A
C244        O245   1.278       .  A
C244        C592   1.499       .  S
O245       Al247   1.938       .  S
O246        C248   1.259       .  A
O246       Al247   1.896       .  S
Al247       O255   1.925       .  S
Al247       O257   1.915       .  S
Al247       O256   1.782       .  S
C248        O261   1.252       .  A
C248        C511   1.488       .  S
O249        C259   1.252       .  A
O249       Al251   1.908       .  S
O250        C263   1.276       .  A
O250       Al260   1.931       .  S
Al251       O264   1.906       .  S
Al251       O261   1.895       .  S
Al251       O256   1.788       .  S
O252        C259   1.250       .  A
O252       Al260   1.887       .  S
O253        C262   1.244       .  A
O253       Al260   1.881       .  S
O254       Al260   1.914       .  S
O255        C262   1.251       .  A
O256       Al260   1.789       .  S
O257        C258   1.264       .  A
C258        C567   1.461       .  S
C259        C581   1.464       .  S
C262        C875   1.479       .  S
C263        O264   1.271       .  A
C263        C525   1.478       .  S
O265        C280   1.258       .  A
O265       Al273   1.885       .  S
C266        O276   1.266       .  A
C266        O267   1.270       .  A
C266        C424   1.495       .  S
O267       Al269   1.935       .  S
O268        C270   1.252       .  A
O268       Al269   1.868       .  S
Al269       O277   1.896       .  S
Al269       O279   1.929       .  S
Al269       O278   1.771       .  S
C270        O283   1.265       .  A
C270        C466   1.492       .  S
O271        C281   1.271       .  A
O271       Al273   1.944       .  S
O272        C285   1.272       .  A
O272       Al282   1.937       .  S
Al273       O286   1.911       .  S
Al273       O283   1.955       .  S
Al273       O278   1.788       .  S
O274        C281   1.262       .  A
O274       Al282   1.882       .  S
O275        C284   1.259       .  A
O275       Al282   1.919       .  S
O276       Al282   1.913       .  S
O277        C284   1.255       .  A
O278       Al282   1.775       .  S
O279        C280   1.265       .  A
C280        C452   1.462       .  S
C281        C438   1.493       .  S
C284        C539   1.480       .  S
C285        O286   1.265       .  A
C285        C483   1.475       .  S
O287        C302   1.262       .  A
O287       Al295   1.891       .  S
C288        O298   1.280       .  A
C288        O289   1.269       .  A
C288        C382   1.502       .  S
O289       Al291   1.907       .  S
O290        C292   1.263       .  A
O290       Al291   1.926       .  S
Al291       O299   1.920       .  S
Al291       O301   1.941       .  S
Al291       O300   1.800       .  S
C292        O305   1.258       .  A
C292        C399   1.483       .  S
O293        C303   1.253       .  A
O293       Al295   1.895       .  S
O294        C307   1.270       .  A
O294       Al304   1.949       .  S
Al295       O308   1.866       .  S
Al295       O305   1.909       .  S
Al295       O300   1.797       .  S
O296        C303   1.248       .  A
O296       Al304   1.866       .  S
O297        C306   1.245       .  A
O297       Al304   1.878       .  S
O298       Al304   1.965       .  S
O299        C306   1.254       .  A
O300       Al304   1.795       .  S
O301        C302   1.270       .  A
C302        C441   1.481       .  S
C303        C455   1.470       .  S
C306        C676   1.480       .  S
C307        O308   1.259       .  A
C307        C410   1.493       .  S
O309        C324   1.259       .  A
O309       Al317   1.882       .  S
C310        O320   1.273       .  A
C310        O311   1.275       .  A
C310        C427   1.517       .  S
O311       Al313   1.948       .  S
O312        C314   1.254       .  A
O312       Al313   1.884       .  S
Al313       O321   1.898       .  S
Al313       O323   1.948       .  S
Al313       O322   1.775       .  S
C314        O327   1.255       .  A
C314        C413   1.474       .  S
O315        C325   1.268       .  A
O315       Al317   1.924       .  S
O316        C329   1.274       .  A
O316       Al326   1.960       .  S
Al317       O330   1.889       .  S
Al317       O327   1.911       .  S
Al317       O322   1.788       .  S
O318        C325   1.267       .  A
O318       Al326   1.924       .  S
O319        C328   1.259       .  A
O319       Al326   1.931       .  S
O320       Al326   1.932       .  S
O321        C328   1.255       .  A
O322       Al326   1.784       .  S
O323        C324   1.271       .  A
C324        C371   1.473       .  S
C325        C354   1.485       .  S
C328        C494   1.502       .  S
C329        O330   1.260       .  A
C329        C396   1.487       .  S
O331        C346   1.267       .  A
O331       Al339   1.927       .  S
C332        O342   1.280       .  A
C332        O333   1.264       .  A
C332        C385   1.508       .  S
O333       Al335   1.889       .  S
O334        C336   1.265       .  A
O334       Al335   1.913       .  S
Al335       O343   1.924       .  S
Al335       O345   1.924       .  S
Al335       O344   1.784       .  S
C336        O349   1.263       .  A
C336        C480   1.480       .  S
O337        C347   1.260       .  A
O337       Al339   1.927       .  S
O338        C351   1.272       .  A
O338       Al348   1.957       .  S
Al339       O352   1.851       .  S
Al339       O349   1.918       .  S
Al339       O344   1.782       .  S
O340        C347   1.253       .  A
O340       Al348   1.879       .  S
O341        C350   1.251       .  A
O341       Al348   1.892       .  S
O342       Al348   1.973       .  S
O343        C350   1.259       .  A
O344       Al348   1.779       .  S
O345        C346   1.268       .  A
C346        C357   1.474       .  S
C347        C368   1.477       .  S
C350        C749   1.491       .  S
C351        O352   1.256       .  A
C351        C469   1.469       .  S
C353        C354   1.405       .  A
C353       C2406   1.410   1_455  A
C353        H360   1.084       .  S
C354        C355   1.416       .  A
C355       C2404   1.397   1_455  A
C355        N362   1.430       .  S
C356        C357   1.396       .  A
C356       C2403   1.397       .  A
C356        H361   1.083       .  S
C357        C358   1.410       .  A
C358       C2401   1.409       .  A
C358        N359   1.426       .  S
N359        O363   1.262       .  A
N359        O364   1.262       .  A
N362        O366   1.262       .  A
N362        O365   1.262       .  A
C367        C368   1.401       .  A
C367        C372   1.408       .  A
C367        H374   1.084       .  S
C368        C369   1.414       .  A
C369        C370   1.398       .  A
C369        N376   1.429       .  S
C370        C371   1.397       .  A
C370        H375   1.085       .  S
C371        C372   1.414       .  A
C372        N373   1.429       .  S
N373        O377   1.262       .  A
N373        O378   1.261       .  A
N376        O380   1.262       .  A
N376        O379   1.262       .  A
C381        C382   1.404       .  A
C381        C386   1.409       .  A
C381        H388   1.084       .  S
C382        C383   1.416       .  A
C383        C384   1.410       .  A
C383        N390   1.428       .  S
C384        C385   1.406       .  A
C384        H389   1.083       .  S
C385        C386   1.424       .  A
C386        N387   1.430       .  S
N387        O391   1.262       .  A
N387        O392   1.261       .  A
N390        O394   1.260       .  A
N390        O393   1.261       .  A
C395        C396   1.406       .  A
C395        C400   1.391       .  A
C395        H402   1.084       .  S
C396        C397   1.408       .  A
C397        C398   1.415       .  A
C397        N404   1.427       .  S
C398        C399   1.412       .  A
C398        H403   1.081       .  S
C399        C400   1.402       .  A
C400        N401   1.426       .  S
N401        O405   1.262       .  A
N401        O406   1.260       .  A
N404        O408   1.262       .  A
N404        O407   1.262       .  A
C409        C410   1.411       .  A
C409        C414   1.397       .  A
C409        H416   1.084       .  S
C410        C411   1.415       .  A
C411       C1436   1.408       .  A
C411        N418   1.429       .  S
C412        C413   1.408   1_565  A
C412       C1435   1.409       .  A
C412        H417   1.084   1_565  S
C413       C1438   1.403   1_545  A
C414       C1437   1.405       .  A
C414       N1439   1.430       .  S
N415       C1438   1.430       .  S
N415       O1443   1.261       .  A
N415        O420   1.262       .  A
N418        O422   1.262       .  A
N418        O421   1.262       .  A
O419       N1439   1.262       .  A
C423        C428   1.411   1_565  A
C423       C1448   1.409       .  A
C423        H430   1.084   1_565  S
C424       C1447   1.406       .  A
C424       C2473   1.411       .  A
C425        C426   1.407       .  A
C425       C2472   1.413   1_455  A
C425        N432   1.429       .  S
C426       C1451   1.410       .  A
C426        H431   1.083       .  S
C427       C1450   1.412   1_545  A
C427       C2476   1.419   1_455  A
C428       C2475   1.418       .  A
C428        N429   1.428       .  S
N429        O433   1.262       .  A
N429       O2482   1.262       .  A
N432        O436   1.262       .  A
N432        O435   1.262       .  A
O434       N2477   1.262       .  A
C437        C442   1.387       .  A
C437       C2486   1.404       .  A
C437        H444   1.083       .  S
C438        C439   1.413       .  A
C438       C2485   1.406       .  A
C439       C2488   1.419       .  A
C439        N446   1.428       .  S
C440        C441   1.409       .  A
C440       C2487   1.417       .  A
C440        H445   1.083       .  S
C441        C442   1.407       .  A
C442        N443   1.429       .  S
N443        O447   1.262       .  A
N443        O448   1.262       .  A
N446        O450   1.262       .  A
N446        O449   1.262       .  A
C451        C452   1.395       .  A
C451        C456   1.394       .  A
C451        H458   1.085       .  S
C452        C453   1.408       .  A
C453        C454   1.400       .  A
C453        N460   1.424       .  S
C454        C455   1.399       .  A
C454        H459   1.084       .  S
C455        C456   1.413       .  A
C456        N457   1.428       .  S
N457        O461   1.261       .  A
N457        O462   1.262       .  A
N460        O464   1.260       .  A
N460        O463   1.260       .  A
C465        C470   1.409   1_565  A
C465       C1490   1.409       .  A
C465       H1496   1.083       .  S
C466       C1489   1.410       .  A
C466       C1491   1.418       .  A
C467        C468   1.390       .  A
C467       C1490   1.419   1_545  A
C467       N1498   1.430       .  S
C468        C469   1.396       .  A
C468        H473   1.085       .  S
C469        C470   1.404       .  A
C470        N471   1.422       .  S
N471        O475   1.260       .  A
N471        O476   1.261       .  A
H472       C1489   1.083       .  S
N474       C1491   1.430       .  S
N474        O478   1.262       .  A
N474        O477   1.262       .  A
C479        C480   1.401       .  A
C479        C484   1.391       .  A
C479        H486   1.083       .  S
C480        C481   1.411       .  A
C481        C482   1.412       .  A
C481        N488   1.429       .  S
C482        C483   1.405       .  A
C482        H487   1.079       .  S
C483        C484   1.406       .  A
C484        N485   1.426       .  S
N485        O489   1.262       .  A
N485        O490   1.262       .  A
N488        O492   1.262       .  A
N488        O491   1.261       .  A
C493        C494   1.409       .  A
C493        C498   1.405       .  A
C493        H500   1.084       .  S
C494        C495   1.418       .  A
C495        C496   1.409       .  A
C495        N502   1.428       .  S
C496        C497   1.404       .  A
C496        H501   1.084       .  S
C497        C498   1.411       .  A
C498        N499   1.429       .  S
N499        O503   1.262       .  A
N499        O504   1.262       .  A
N502        O506   1.262       .  A
N502        O505   1.262       .  A
C507        C508   1.406       .  A
C507        C512   1.416       .  A
C507        H514   1.083       .  S
C508        C509   1.416       .  A
C509        C510   1.390       .  A
C509        N516   1.430       .  S
C510        C511   1.397       .  A
C510        H515   1.084       .  S
C511        C512   1.418       .  A
C512        N513   1.428       .  S
N513        O517   1.262       .  A
N513        O518   1.262       .  A
N516        O520   1.262       .  A
N516        O519   1.261       .  A
C521        C526   1.409       .  A
C521       C1546   1.410       .  A
C521        H528   1.084       .  S
C522        C523   1.400   1_545  A
C522       C1545   1.407       .  A
C523       C1548   1.393       .  A
C523        N530   1.429       .  S
C524        C525   1.405       .  A
C524       C1547   1.393       .  A
C524        H529   1.085       .  S
C525        C526   1.408       .  A
C526        N527   1.428       .  S
N527        O531   1.262       .  A
N527        O532   1.262       .  A
N530        O534   1.261       .  A
N530        O533   1.261       .  A
C535        C536   1.405       .  A
C535        C540   1.400       .  A
C535        H542   1.084       .  S
C536        C537   1.414       .  A
C537        C538   1.402       .  A
C537        N544   1.428       .  S
C538        C539   1.403       .  A
C538        H543   1.084       .  S
C539        C540   1.408       .  A
C540        N541   1.425       .  S
N541        O545   1.261       .  A
N541        O546   1.262       .  A
N544        O548   1.262       .  A
N544        O547   1.262       .  A
C549        C554   1.406       .  A
C549       C1574   1.407       .  A
C549        H556   1.082       .  S
C550        C551   1.416       .  A
C550       C1573   1.408   1_545  A
C551        C552   1.409       .  A
C551        N558   1.429       .  S
C552       C1577   1.408   1_545  A
C552        H557   1.081       .  S
C553        C554   1.417       .  A
C553       C1576   1.408       .  A
C554        N555   1.429       .  S
N555        O559   1.262       .  A
N555        O560   1.262       .  A
N558        O562   1.262       .  A
N558        O561   1.262       .  A
C563        C564   1.404       .  A
C563        C568   1.384       .  A
C563        H570   1.084       .  S
C564        C565   1.413       .  A
C565        C566   1.410       .  A
C565        N572   1.428       .  S
C566        C567   1.405       .  A
C566        H571   1.084       .  S
C567        C568   1.402       .  A
C568        N569   1.430       .  S
N569        O573   1.262       .  A
N569        O574   1.261       .  A
N572        O576   1.262       .  A
N572        O575   1.261       .  A
C577        C578   1.408       .  A
C577       C2630   1.391       .  A
C577        H584   1.084       .  S
C578        C579   1.413       .  A
C579        C580   1.406       .  A
C579        N586   1.428       .  S
C580       C2629   1.405       .  A
C580        H585   1.084       .  S
C581        C582   1.404   1_455  A
C581       C2628   1.404       .  A
C582       C2625   1.399       .  A
C582        N583   1.429   1_655  S
N583        O587   1.262       .  A
N583        O588   1.262       .  A
N586        O590   1.262       .  A
N586        O589   1.262       .  A
C591        C592   1.406       .  A
C591       C2644   1.404   1_455  A
C591        H598   1.084   1_455  S
C592        C593   1.419       .  A
C593        C594   1.405       .  A
C593        N600   1.428       .  S
C594       C2643   1.403   1_455  A
C594       H2647   1.084       .  S
C595        C596   1.418       .  A
C595       C2642   1.405       .  A
C596       C2639   1.408       .  A
C596        N597   1.429       .  S
N597        O601   1.262       .  A
N597        O602   1.262       .  A
H599       C2642   1.084       .  S
N600        O604   1.262       .  A
N600        O603   1.262       .  A
C605        C606   1.397       .  A
C605       C2658   1.399       .  A
C605        H612   1.084       .  S
C606        C607   1.410       .  A
C607        C608   1.404       .  A
C607        N614   1.430       .  S
C608       C2657   1.402       .  A
C608        H613   1.084       .  S
C609        C610   1.414       .  A
C609       C2656   1.399       .  A
C610       C2653   1.399       .  A
C610        N611   1.428       .  S
N611        O615   1.261       .  A
N611        O616   1.262       .  A
N614        O618   1.261       .  A
N614        O617   1.262       .  A
C619        C620   1.404       .  A
C619        C624   1.387       .  A
C619        H626   1.084       .  S
C620        C621   1.412       .  A
C621        C622   1.412       .  A
C621        N628   1.427       .  S
C622        C623   1.407       .  A
C622        H627   1.084       .  S
C623        C624   1.400       .  A
C624        N625   1.427       .  S
N625        O629   1.262       .  A
N625        O630   1.261       .  A
N628        O632   1.262       .  A
N628        O631   1.261       .  A
C633        C634   1.405       .  A
C633       C1662   1.404       .  A
C633        H640   1.084       .  S
C634       C1659   1.404       .  A
C635        C636   1.389       .  A
C635       C1658   1.403   1_545  A
C635       N1666   1.427       .  S
C636        C637   1.405       .  A
C636        H641   1.084       .  S
C637        C638   1.408       .  A
C638       C1657   1.407   1_545  A
C638        N639   1.428       .  S
N639        O643   1.261       .  A
N639        O644   1.262       .  A
N642       C1659   1.427       .  S
N642       O1670   1.261       .  A
N642        O645   1.262       .  A
O646       N1666   1.261       .  A
C647        C648   1.398       .  A
C647        C652   1.387       .  A
C647        H654   1.085       .  S
C648        C649   1.413       .  A
C649        C650   1.414       .  A
C649        N656   1.427       .  S
C650        C651   1.407       .  A
C650        H655   1.083       .  S
C651        C652   1.411       .  A
C652        N653   1.430       .  S
N653        O657   1.261       .  A
N653        O658   1.262       .  A
N656        O660   1.262       .  A
N656        O659   1.262       .  A
C661        C666   1.407       .  A
C661       C2710   1.408       .  A
C661        H668   1.084       .  S
C662        C663   1.420       .  A
C662       C2709   1.408   1_455  A
C663        C664   1.415       .  A
C663        N670   1.428       .  S
C664       C2713   1.410   1_455  A
C664        H669   1.083       .  S
C665        C666   1.419       .  A
C665       C2712   1.409       .  A
C666        N667   1.429       .  S
N667        O671   1.262       .  A
N667        O672   1.262       .  A
N670        O674   1.261       .  A
N670        O673   1.262       .  A
C675        C676   1.405       .  A
C675        C680   1.409       .  A
C675        H682   1.084       .  S
C676        C677   1.406       .  A
C677        C678   1.399       .  A
C677        N684   1.428       .  S
C678        C679   1.409       .  A
C678        H683   1.084       .  S
C679        C680   1.413       .  A
C680        N681   1.427       .  S
N681        O685   1.262       .  A
N681        O686   1.262       .  A
N684        O688   1.262       .  A
N684        O687   1.261       .  A
C689        C690   1.409       .  A
C689        C694   1.418       .  A
C689        H696   1.083       .  S
C690        C691   1.413       .  A
C691        C692   1.390   1_554  A
C691        N698   1.434   1_554  S
C692       C2741   1.407   1_456  A
C692        H697   1.083       .  S
C693       C2740   1.406   1_554  A
C693       C2742   1.417       .  A
C694       C2741   1.416   1_455  A
C694       N2743   1.427   1_455  S
N695       C2742   1.427       .  S
N695        O699   1.262       .  A
N695        O700   1.262       .  A
N698        O702   1.262       .  A
N698        O701   1.262       .  A
C703        C704   1.399       .  A
C703        C708   1.410       .  A
C703        H710   1.085       .  S
C704        C705   1.408       .  A
C705        C706   1.393       .  A
C705        N712   1.432       .  S
C706        C707   1.394       .  A
C706        H711   1.088       .  S
C707        C708   1.419       .  A
C708        N709   1.441       .  S
N709        O713   1.263       .  A
N709        O714   1.263       .  A
N712        O716   1.262   1_556  A
N712        O715   1.262       .  A
C717        C718   1.395       .  A
C717        C722   1.394       .  A
C717        H724   1.084   1_554  S
C718        C719   1.410       .  A
C719        C720   1.400       .  A
C719        N726   1.427       .  S
C720        C721   1.401       .  A
C720        H725   1.084       .  S
C721        C722   1.417       .  A
C722        N723   1.430   1_554  S
N723        O727   1.262       .  A
N723        O728   1.261   1_556  A
N726        O730   1.262       .  A
N726        O729   1.262       .  A
C731        C732   1.402       .  A
C731       C1760   1.394   1_556  A
C731        H738   1.085       .  S
C732        C733   1.406       .  A
C733        C734   1.405       .  A
C733        N740   1.426       .  S
C734       C1759   1.407   1_546  A
C734       H1763   1.084   1_545  S
C735        C736   1.413       .  A
C735       C1758   1.409   1_554  A
C736       C1755   1.391   1_554  A
C736        N737   1.432       .  S
N737        O741   1.262       .  A
N737        O742   1.261       .  A
H739       C1758   1.084       .  S
N740        O744   1.262       .  A
N740        O743   1.261       .  A
C745        C746   1.396       .  A
C745        C750   1.399       .  A
C745        H752   1.084       .  S
C746        C747   1.412       .  A
C747        C748   1.403       .  A
C747        N754   1.429       .  S
C748        C749   1.407       .  A
C748        H753   1.084       .  S
C749        C750   1.419       .  A
C750        N751   1.426       .  S
N751        O755   1.262       .  A
N751        O756   1.262       .  A
N754        O758   1.262       .  A
N754        O757   1.262       .  A
C759        C764   1.408       .  A
C759       C1784   1.407       .  A
C759        H766   1.083       .  S
C760        C761   1.415       .  A
C760       C1783   1.406   1_545  A
C761        C762   1.408       .  A
C761        N768   1.426       .  S
C762       C1787   1.407   1_545  A
C762        H767   1.084       .  S
C763        C764   1.417       .  A
C763       C1786   1.407       .  A
C764        N765   1.429       .  S
N765        O769   1.262       .  A
N765        O770   1.262       .  A
N768        O772   1.261       .  A
N768        O771   1.262       .  A
C773        C774   1.397   1_554  A
C773        C778   1.389       .  A
C773        H780   1.083       .  S
C774        C775   1.411       .  A
C775        C776   1.406       .  A
C775        N782   1.420       .  S
C776        C777   1.401   1_556  A
C776        H781   1.084       .  S
C777        C778   1.414       .  A
C778        N779   1.431       .  S
N779        O783   1.262       .  A
N779        O784   1.262       .  A
N782        O786   1.260       .  A
N782        O785   1.261       .  A
C787        C788   1.407       .  A
C787       C2840   1.413       .  A
C787        H794   1.081       .  S
C788        C789   1.404       .  A
C789        C790   1.391   1_554  A
C789        N796   1.429   1_554  S
C790       C2839   1.407   1_556  A
C790        H795   1.084       .  S
C791        C792   1.413   1_455  A
C791       C2838   1.406   1_454  A
C792       C2835   1.415       .  A
C792        N793   1.429   1_655  S
N793        O797   1.262       .  A
N793        O798   1.261       .  A
N796        O800   1.262   1_556  A
N796        O799   1.261       .  A
C801        C802   1.409       .  A
C801       C1830   1.414   1_545  A
C801        H808   1.083       .  S
C802       C1827   1.403   1_546  A
C803        C804   1.389       .  A
C803       C1826   1.402       .  A
C803        N810   1.428   1_556  S
C804        C805   1.406       .  A
C804        H809   1.084       .  S
C805        C806   1.409       .  A
C806       C1825   1.413       .  A
C806        N807   1.427       .  S
N807       O1835   1.262       .  A
N807        O812   1.262       .  A
N810        O814   1.261       .  A
N810        O813   1.262       .  A
O811       N1831   1.262       .  A
C815        C816   1.398       .  A
C815        C820   1.401       .  A
C815        H822   1.084       .  S
C816        C817   1.412       .  A
C817        C818   1.398       .  A
C817        N824   1.425       .  S
C818        C819   1.395       .  A
C818        H823   1.084       .  S
C819        C820   1.411       .  A
C820        N821   1.426       .  S
N821        O825   1.262       .  A
N821        O826   1.262       .  A
N824        O828   1.262       .  A
N824        O827   1.262   1_554  A
C829        C830   1.405       .  A
C829        C834   1.401       .  A
C829        H836   1.084       .  S
C830        C831   1.412       .  A
C831        C832   1.407       .  A
C831        N838   1.428       .  S
C832        C833   1.408       .  A
C832        H837   1.084       .  S
C833        C834   1.415       .  A
C834        N835   1.429       .  S
N835        O839   1.262       .  A
N835        O840   1.262       .  A
N838        O842   1.262       .  A
N838        O841   1.262       .  A
C843        C844   1.398       .  A
C843        C848   1.399       .  A
C843        H850   1.084       .  S
C844        C845   1.414       .  A
C845        C846   1.401       .  A
C845        N852   1.429       .  S
C846        C847   1.405       .  A
C846        H851   1.084       .  S
C847        C848   1.413       .  A
C848        N849   1.421       .  S
N849        O853   1.261       .  A
N849        O854   1.261       .  A
N852        O856   1.262       .  A
N852        O855   1.262       .  A
C857        C858   1.405       .  A
C857        C862   1.405       .  A
C857        H864   1.084       .  S
C858        C859   1.415       .  A
C859        C860   1.411       .  A
C859        N866   1.430       .  S
C860        C861   1.411       .  A
C860        H865   1.083       .  S
C861        C862   1.419       .  A
C862        N863   1.429       .  S
N863        O867   1.262       .  A
N863        O868   1.262       .  A
N866        O870   1.262       .  A
N866        O869   1.262       .  A
C871        C872   1.411       .  A
C871        C876   1.409       .  A
C871        H878   1.083       .  S
C872        C873   1.415       .  A
C873        C874   1.402       .  A
C873        N880   1.427       .  S
C874        C875   1.400       .  A
C874        H879   1.085       .  S
C875        C876   1.408       .  A
C876        N877   1.428       .  S
N877        O881   1.262       .  A
N877        O882   1.262       .  A
N880        O884   1.260       .  A
N880        O883   1.262       .  A
C885        C886   1.397       .  A
C885       C2938   1.395       .  A
C885        H892   1.080       .  S
C886        C887   1.419       .  A
C887       C2936   1.399       .  A
C887        N894   1.428       .  S
C888        C889   1.394   1_655  A
C888       C2935   1.400       .  A
C888        H893   1.085       .  S
C889        C890   1.407   1_455  A
C890       C2933   1.395       .  A
C890        N891   1.427   1_655  S
N891        O895   1.262       .  A
N891        O896   1.262       .  A
N894        O898   1.262       .  A
N894        O897   1.261       .  A
C899        C900   1.397       .  A
C899        C904   1.397       .  A
C899        H906   1.083       .  S
C900        C901   1.418       .  A
C901        C902   1.401       .  A
C901        N908   1.428       .  S
C902        C903   1.396       .  A
C902        H907   1.084       .  S
C903        C904   1.409       .  A
C904        N905   1.425       .  S
N905        O909   1.262       .  A
N905        O910   1.262       .  A
N908        O912   1.262       .  A
N908        O911   1.261       .  A
C913        C914   1.408       .  A
C913        C918   1.414       .  A
C913        H920   1.083       .  S
C914        C915   1.411       .  A
C915        C916   1.380       .  A
C915        N922   1.431       .  S
C916        C917   1.403       .  A
C916        H921   1.081       .  S
C917        C918   1.413       .  A
C918        N919   1.426       .  S
N919        O923   1.262       .  A
N919        O924   1.261       .  A
N922        O926   1.261       .  A
N922        O925   1.262       .  A
C927        C932   1.408       .  A
C927       C1952   1.409   1_545  A
C927        H934   1.083   1_545  S
C928        C929   1.406       .  A
C928       C1951   1.411       .  A
C929       C1954   1.382       .  A
C929        N936   1.430       .  S
C930        C931   1.394       .  A
C930       C1953   1.391       .  A
C930        H935   1.078       .  S
C931        C932   1.409       .  A
C932        N933   1.429       .  S
N933        O937   1.261       .  A
N933        O938   1.262       .  A
N936        O940   1.262       .  A
N936        O939   1.262       .  A
C941        C942   1.404       .  A
C941        C946   1.400       .  A
C941        H948   1.084       .  S
C942        C943   1.414       .  A
C943        C944   1.406       .  A
C943        N950   1.429       .  S
C944        C945   1.401       .  A
C944        H949   1.084       .  S
C945        C946   1.407       .  A
C946        N947   1.429       .  S
N947        O951   1.262       .  A
N947        O952   1.262       .  A
N950        O954   1.262       .  A
N950        O953   1.262       .  A
C955        C956   1.411   1_655  A
C955       C1984   1.412       .  A
C955        H962   1.083       .  S
C956        C957   1.417       .  A
C957       C4030   1.406       .  A
C957        N964   1.429       .  S
C958        C959   1.407       .  A
C958       C4029   1.403       .  A
C958        H963   1.084       .  S
C959       C3008   1.418   1_545  A
C960       C1979   1.410       .  A
C960       C3007   1.416   1_565  A
C960       N3009   1.427       .  S
N961       C3008   1.428       .  S
N961       O3013   1.262       .  A
N961        O966   1.262       .  A
N964        O968   1.262       .  A
N964        O967   1.262       .  A
O965       N3009   1.262       .  A
C969        C970   1.404       .  A
C969        C974   1.384       .  A
C969        H976   1.078       .  S
C970        C971   1.415       .  A
C971       C1996   1.419       .  A
C971        N978   1.428       .  S
C972        C973   1.409       .  A
C972       C1995   1.415   1_545  A
C972        H977   1.083       .  S
C973       C1998   1.410   1_545  A
C974       C1997   1.409       .  A
C974        N975   1.431       .  S
N975        O979   1.262       .  A
N975        O980   1.262       .  A
N978        O982   1.261       .  A
N978        O981   1.262       .  A
C983        C984   1.410       .  A
C983        C988   1.416       .  A
C983        H990   1.083       .  S
C984        C985   1.414       .  A
C985        C986   1.391       .  A
C985        N992   1.429       .  S
C986        C987   1.398       .  A
C986        H991   1.084       .  S
C987        C988   1.411       .  A
C988        N989   1.429       .  S
N989        O993   1.262       .  A
N989        O994   1.262       .  A
N992        O996   1.261       .  A
N992        O995   1.262       .  A
C997        C998   1.409       .  A
C997       C1002   1.398       .  A
C997       H1004   1.081       .  S
C998        C999   1.411       .  A
C999       C3048   1.399   1_455  A
C999       N1006   1.428       .  S
C1000      C1001   1.401       .  A
C1000      C3047   1.396       .  A
C1000      H1005   1.084       .  S
C1001      C3050   1.400       .  A
C1002      C3049   1.399   1_455  A
C1002      N1003   1.429       .  S
N1003      O1007   1.261       .  A
N1003      O3056   1.262   1_455  A
N1006      O1010   1.262       .  A
N1006      O1009   1.262       .  A
O1008      N3051   1.262       .  A
C1011      C1012   1.396       .  A
C1011      C1016   1.399       .  A
C1011      H1018   1.085       .  S
C1012      C1013   1.411       .  A
C1013      C1014   1.401       .  A
C1013      N1020   1.429       .  S
C1014      C1015   1.400       .  A
C1014      H1019   1.083       .  S
C1015      C1016   1.419       .  A
C1016      N1017   1.430       .  S
N1017      O1021   1.261       .  A
N1017      O1022   1.262       .  A
N1020      O1024   1.262       .  A
N1020      O1023   1.262       .  A
O1025      C1040   1.255       .  A
O1025     Al1033   1.874       .  S
C1026      O1036   1.267       .  A
C1026      O1027   1.277       .  A
C1026      C1983   1.506       .  S
O1027     Al1029   1.970       .  S
O1028      C1030   1.255       .  A
O1028     Al1029   1.874       .  S
Al1029     O1037   1.908       .  S
Al1029     O1039   1.954       .  S
Al1029     O1038   1.769       .  S
C1030      O1043   1.261       .  A
C1030      C1997   1.486       .  S
O1031      C1041   1.261       .  A
O1031     Al1033   1.905       .  S
O1032      C1045   1.267       .  A
O1032     Al1042   1.918       .  S
Al1033     O1046   1.912       .  S
Al1033     O1043   1.938       .  S
Al1033     O1038   1.787       .  S
O1034      C1041   1.262       .  A
O1034     Al1042   1.904       .  S
O1035      C1044   1.256       .  A
O1035     Al1042   1.903       .  S
O1036     Al1042   1.896       .  S
O1037      C1044   1.255       .  A
O1038     Al1042   1.779       .  S
O1039      C1040   1.274       .  A
C1040      C2039   1.485       .  S
C1041      C2025   1.458       .  S
C1044      C1966   1.476       .  S
C1045      O1046   1.266       .  A
C1045      C2011   1.471       .  S
O1047      C1062   1.268       .  A
O1047     Al1055   1.900       .  S
C1048      O1058   1.285       .  A
C1048      O1049   1.275       .  A
C1048      C1980   1.506       .  S
O1049     Al1051   1.904       .  S
O1050      C1052   1.253       .  A
O1050     Al1051   1.899       .  S
Al1051     O1059   1.906       .  S
Al1051     O1061   1.926       .  S
Al1051     O1060   1.787       .  S
C1052      O1065   1.254       .  A
C1052      C1952   1.484       .  S
O1053      C1063   1.251       .  A
O1053     Al1055   1.884       .  S
O1054      C1067   1.268       .  A
O1054     Al1064   1.940       .  S
Al1055     O1068   1.843       .  S
Al1055     O1065   1.906       .  S
Al1055     O1060   1.788       .  S
O1056      C1063   1.255       .  A
O1056     Al1064   1.890       .  S
O1057      C1066   1.250       .  A
O1057     Al1064   1.917       .  S
O1058     Al1064   1.963       .  S
O1059      C1066   1.249       .  A
O1060     Al1064   1.782       .  S
O1061      C1062   1.276       .  A
C1062      C1924   1.475       .  S
C1063      C1913   1.466       .  S
C1066      C1896   1.495       .  S
C1067      O1068   1.254       .  A
C1067      C1941   1.473       .  S
O1069      C1084   1.259       .  A
O1069     Al1077   1.875       .  S
C1070      O1080   1.268       .  A
C1070      O1071   1.274       .  A
C1070      C1882   1.511       .  S
O1071     Al1073   1.950       .  S
O1072      C1074   1.250       .  A
O1072     Al1073   1.864       .  S
Al1073     O1081   1.871       .  S
Al1073     O1083   1.948       .  S
Al1073     O1082   1.770       .  S
C1074      O1087   1.258       .  A
C1074      C1938   1.474       .  S
O1075      C1085   1.269       .  A
O1075     Al1077   1.923       .  S
O1076      C1089   1.271       .  A
O1076     Al1086   1.948       .  S
Al1077     O1090   1.886       .  S
Al1077     O1087   1.923       .  S
Al1077     O1082   1.776       .  S
O1078      C1085   1.268       .  A
O1078     Al1086   1.936       .  S
O1079      C1088   1.263       .  A
O1079     Al1086   1.935       .  S
O1080     Al1086   1.915       .  S
O1081      C1088   1.249       .  A
O1082     Al1086   1.780       .  S
O1083      C1084   1.271       .  A
C1084      C2022   1.477       .  S
C1085      C2036   1.479       .  S
C1088      C1868   1.481       .  S
C1089      O1090   1.264       .  A
C1089      C1955   1.482       .  S
O1091      C1106   1.254       .  A
O1091     Al1099   1.855       .  S
C1092      O1102   1.267       .  A
C1092      O1093   1.276       .  A
C1092      C1885   1.506       .  S
O1093     Al1095   1.959       .  S
O1094      C1096   1.252       .  A
O1094     Al1095   1.874       .  S
Al1095     O1103   1.881       .  S
Al1095     O1105   1.950       .  S
Al1095     O1104   1.765       .  S
C1096      O1109   1.259       .  A
C1096      C2008   1.483       .  S
O1097      C1107   1.263       .  A
O1097     Al1099   1.892       .  S
O1098      C1111   1.269       .  A
O1098     Al1108   1.947       .  S
Al1099     O1112   1.905       .  S
Al1099     O1109   1.942       .  S
Al1099     O1104   1.792       .  S
O1100      C1107   1.272       .  A
O1100     Al1108   1.932       .  S
O1101      C1110   1.261       .  A
O1101     Al1108   1.942       .  S
O1102     Al1108   1.908       .  S
O1103      C1110   1.251       .  A
O1104     Al1108   1.781       .  S
O1105      C1106   1.275       .  A
C1106      C1910   1.483       .  S
C1107      C1927   1.464       .  S
C1110      C1854   1.491       .  S
C1111      O1112   1.264       .  A
C1111      C1994   1.484       .  S
O1113      C1128   1.265       .  A
O1113     Al1121   1.912       .  S
C1114      O1124   1.274       .  A
C1114      O1115   1.264       .  A
C1114      C1784   1.503       .  S
O1115     Al1117   1.896       .  S
O1116      C1118   1.267       .  A
O1116     Al1117   1.921       .  S
Al1117     O1125   1.924       .  S
Al1117     O1127   1.921       .  S
Al1117     O1126   1.777       .  S
C1118      O1131   1.265   1_554  A
C1118      C1826   1.474   1_554  S
O1119      C1129   1.263       .  A
O1119     Al1121   1.936       .  S
O1120      C1133   1.270       .  A
O1120     Al1130   1.949       .  S
Al1121     O1134   1.877       .  S
Al1121     O1131   1.913   1_554  S
Al1121     O1126   1.784       .  S
O1122      C1129   1.249       .  A
O1122     Al1130   1.851       .  S
O1123      C1132   1.252       .  A
O1123     Al1130   1.883       .  S
O1124     Al1130   1.961       .  S
O1125      C1132   1.262       .  A
O1126     Al1130   1.774       .  S
O1127      C1128   1.265       .  A
C1128      C1812   1.473       .  S
C1129      C1801   1.473       .  S
C1132      C1770   1.480       .  S
C1133      O1134   1.258       .  A
C1133      C1843   1.477       .  S
O1135      C1150   1.257       .  A
O1135     Al1143   1.868       .  S
C1136      O1146   1.277       .  A
C1136      O1137   1.282       .  A
C1136      C1787   1.503       .  S
O1137     Al1139   1.942       .  S
O1138      C1140   1.256       .  A
O1138     Al1139   1.903       .  S
Al1139     O1147   1.925       .  S
Al1139     O1149   1.960       .  S
Al1139     O1148   1.803       .  S
C1140      O1153   1.252       .  A
C1140      C1759   1.480       .  S
O1141      C1151   1.245       .  A
O1141     Al1143   1.895       .  S
O1142      C1155   1.269       .  A
O1142     Al1152   1.907       .  S
Al1143     O1156   1.890       .  S
Al1143     O1153   1.884       .  S
Al1143     O1148   1.791       .  S
O1144      C1151   1.247       .  A
O1144     Al1152   1.886       .  S
O1145      C1154   1.242       .  A
O1145     Al1152   1.863       .  S
O1146     Al1152   1.922       .  S
O1147      C1154   1.251       .  A
O1148     Al1152   1.792       .  S
O1149      C1150   1.274       .  A
C1150      C1714   1.493       .  S
C1151      C1728   1.473   1_554  S
C1154      C1703   1.493       .  S
C1155      O1156   1.265       .  A
C1155      C1745   1.468       .  S
O1157      C1172   1.263       .  A
O1157     Al1165   1.897       .  S
C1158      O1168   1.275       .  A
C1158      O1159   1.277       .  A
C1158      C1689   1.516       .  S
O1159     Al1161   1.951       .  S
O1160      C1162   1.251       .  A
O1160     Al1161   1.885       .  S
Al1161     O1169   1.901       .  S
Al1161     O1171   1.933       .  S
Al1161     O1170   1.790       .  S
C1162      O1175   1.255   1_556  A
C1162      C1840   1.475   1_556  S
O1163      C1173   1.268       .  A
O1163     Al1165   1.947       .  S
O1164      C1177   1.273       .  A
O1164     Al1174   1.954       .  S
Al1165     O1178   1.888       .  S
Al1165     O1175   1.909   1_556  S
Al1165     O1170   1.797       .  S
O1166      C1173   1.261       .  A
O1166     Al1174   1.894       .  S
O1167      C1176   1.251       .  A
O1167     Al1174   1.908       .  S
O1168     Al1174   1.927       .  S
O1169      C1176   1.251       .  A
O1170     Al1174   1.790       .  S
O1171      C1172   1.268       .  A
C1172      C1731   1.482       .  S
C1173      C1717   1.502   1_556  S
C1176      C1857   1.497       .  S
C1177      O1178   1.262       .  A
C1177      C1829   1.487       .  S
O1179      C1194   1.257       .  A
O1179     Al1187   1.860       .  S
C1180      O1190   1.273       .  A
C1180      O1181   1.276       .  A
C1180      C1686   1.507       .  S
O1181     Al1183   1.951       .  S
O1182      C1184   1.254       .  A
O1182     Al1183   1.884       .  S
Al1183     O1191   1.911       .  S
Al1183     O1193   1.926       .  S
Al1183     O1192   1.795       .  S
C1184      O1197   1.249   1_556  A
C1184      C1742   1.460   1_556  S
O1185      C1195   1.258   1_554  A
O1185     Al1187   1.920   1_554  S
O1186      C1199   1.273       .  A
O1186     Al1196   1.940       .  S
Al1187     O1200   1.868       .  S
Al1187     O1197   1.879   1_556  S
Al1187     O1192   1.799       .  S
O1188      C1195   1.253       .  A
O1188     Al1196   1.876       .  S
O1189      C1198   1.249       .  A
O1189     Al1196   1.888       .  S
O1190     Al1196   1.912       .  S
O1191      C1198   1.251       .  A
O1192     Al1196   1.793       .  S
O1193      C1194   1.264       .  A
C1194      C1798   1.472       .  S
C1195      C1815   1.490   1_556  S
C1198      C1871   1.490       .  S
C1199      O1200   1.261       .  A
C1199      C1756   1.468       .  S
O1201      C1216   1.259       .  A
O1201     Al1209   1.871       .  S
C1202      O1212   1.277       .  A
C1202      O1203   1.280       .  A
C1202      C1619   1.499       .  S
O1203     Al1205   1.948       .  S
O1204      C1206   1.255       .  A
O1204     Al1205   1.874       .  S
Al1205     O1213   1.915       .  S
Al1205     O1215   1.926       .  S
Al1205     O1214   1.787       .  S
C1206      O1219   1.253       .  A
C1206      C1672   1.484       .  S
O1207      C1217   1.253       .  A
O1207     Al1209   1.908       .  S
O1208      C1221   1.272       .  A
O1208     Al1218   1.917       .  S
Al1209     O1222   1.910       .  S
Al1209     O1219   1.906       .  S
Al1209     O1214   1.786       .  S
O1210      C1217   1.250       .  A
O1210     Al1218   1.898       .  S
O1211      C1220   1.245       .  A
O1211     Al1218   1.866       .  S
O1212     Al1218   1.900       .  S
O1213      C1220   1.249       .  A
O1214     Al1218   1.787       .  S
O1215      C1216   1.267       .  A
C1216      C1647   1.468       .  S
C1217      C1633   1.472       .  S
C1220      C1969   1.493       .  S
C1221      O1222   1.272       .  A
C1221      C1661   1.473       .  S
O1223      C1238   1.257       .  A
O1223     Al1231   1.851       .  S
C1224      O1234   1.269       .  A
C1224      O1225   1.276       .  A
C1224      C1577   1.506       .  S
O1225     Al1227   1.946       .  S
O1226      C1228   1.255       .  A
O1226     Al1227   1.893       .  S
Al1227     O1235   1.908       .  S
Al1227     O1237   1.940       .  S
Al1227     O1236   1.790       .  S
C1228      O1241   1.248       .  A
C1228      C1658   1.471       .  S
O1229      C1239   1.260       .  A
O1229     Al1231   1.916       .  S
O1230      C1243   1.271       .  A
O1230     Al1240   1.946       .  S
Al1231     O1244   1.878       .  S
Al1231     O1241   1.878       .  S
Al1231     O1236   1.798       .  S
O1232      C1239   1.261       .  A
O1232     Al1240   1.892       .  S
O1233      C1242   1.253       .  A
O1233     Al1240   1.905       .  S
O1234     Al1240   1.909       .  S
O1235      C1242   1.253       .  A
O1236     Al1240   1.789       .  S
O1237      C1238   1.268       .  A
C1238      C1602   1.484       .  S
C1239      C1588   1.483       .  S
C1242      C1560   1.492       .  S
C1243      O1244   1.258       .  A
C1243      C1675   1.477       .  S
O1245      C1260   1.259       .  A
O1245     Al1253   1.878       .  S
C1246      O1256   1.266       .  A
C1246      O1247   1.270       .  A
C1246      C1574   1.502       .  S
O1247     Al1249   1.932       .  S
O1248      C1250   1.256       .  A
O1248     Al1249   1.892       .  S
Al1249     O1257   1.901       .  S
Al1249     O1259   1.935       .  S
Al1249     O1258   1.784       .  S
C1250      O1263   1.254       .  A
C1250      C1546   1.479       .  S
O1251      C1261   1.267       .  A
O1251     Al1253   1.930       .  S
O1252      C1265   1.272       .  A
O1252     Al1262   1.957       .  S
Al1253     O1266   1.870       .  S
Al1253     O1263   1.905       .  S
Al1253     O1258   1.792       .  S
O1254      C1261   1.263       .  A
O1254     Al1262   1.889       .  S
O1255      C1264   1.258       .  A
O1255     Al1262   1.919       .  S
O1256     Al1262   1.911       .  S
O1257      C1264   1.256       .  A
O1258     Al1262   1.789       .  S
O1259      C1260   1.268       .  A
C1260      C1630   1.472       .  S
C1261      C1644   1.488       .  S
C1264      C1521   1.486       .  S
C1265      O1266   1.257       .  A
C1265      C1532   1.483       .  S
O1267      C1282   1.263       .  A
O1267     Al1275   1.893       .  S
C1268      O1278   1.277       .  A
C1268      O1269   1.263       .  A
C1268      C1616   1.500       .  S
O1269     Al1271   1.876       .  S
O1270      C1272   1.266       .  A
O1270     Al1271   1.914       .  S
Al1271     O1279   1.925       .  S
Al1271     O1281   1.931       .  S
Al1271     O1280   1.784       .  S
C1272      O1285   1.264       .  A
C1272      C1535   1.495       .  S
O1273      C1283   1.253       .  A
O1273     Al1275   1.904       .  S
O1274      C1287   1.273       .  A
O1274     Al1284   1.957       .  S
Al1275     O1288   1.844       .  S
Al1275     O1285   1.921       .  S
Al1275     O1280   1.792       .  S
O1276      C1283   1.250       .  A
O1276     Al1284   1.870       .  S
O1277      C1286   1.251       .  A
O1277     Al1284   1.895       .  S
O1278     Al1284   1.959       .  S
O1279      C1286   1.258       .  A
O1280     Al1284   1.784       .  S
O1281      C1282   1.269       .  A
C1282      C1591   1.470       .  S
C1283      C1605   1.463       .  S
C1286      C1899   1.496       .  S
C1287      O1288   1.256       .  A
C1287      C1549   1.482       .  S
O1289      C1304   1.256       .  A
O1289     Al1297   1.856       .  S
C1290      O1300   1.270       .  A
C1290      O1291   1.277       .  A
C1290      C1448   1.507       .  S
O1291     Al1293   1.951       .  S
O1292      C1294   1.248       .  A
O1292     Al1293   1.860       .  S
Al1293     O1301   1.886       .  S
Al1293     O1303   1.941       .  S
Al1293     O1302   1.780       .  S
C1294      O1307   1.257       .  A
C1294      C1490   1.488       .  S
O1295      C1305   1.267       .  A
O1295     Al1297   1.933       .  S
O1296      C1309   1.277       .  A
O1296     Al1306   1.957       .  S
Al1297     O1310   1.888       .  S
Al1297     O1307   1.919       .  S
Al1297     O1302   1.793       .  S
O1298      C1305   1.259       .  A
O1298     Al1306   1.886       .  S
O1299      C1308   1.255       .  A
O1299     Al1306   1.924       .  S
O1300     Al1306   1.912       .  S
O1301      C1308   1.248       .  A
O1302     Al1306   1.790       .  S
O1303      C1304   1.270       .  A
C1304      C1476   1.481       .  S
C1305      C1462   1.489       .  S
C1308      C1563   1.492       .  S
C1309      O1310   1.262       .  A
C1309      C1507   1.489       .  S
O1311      C1326   1.258       .  A
O1311     Al1319   1.890       .  S
C1312      O1322   1.275       .  A
C1312      O1313   1.266       .  A
C1312      C1406   1.504       .  S
O1313     Al1315   1.915       .  S
O1314      C1316   1.270       .  A
O1314     Al1315   1.935       .  S
Al1315     O1323   1.932       .  S
Al1315     O1325   1.946       .  S
Al1315     O1324   1.791       .  S
C1316      O1329   1.263       .  A
C1316      C1423   1.477       .  S
O1317      C1327   1.252       .  A
O1317     Al1319   1.909       .  S
O1318      C1331   1.273       .  A
O1318     Al1328   1.963       .  S
Al1319     O1332   1.846       .  S
Al1319     O1329   1.902       .  S
Al1319     O1324   1.796       .  S
O1320      C1327   1.253       .  A
O1320     Al1328   1.881       .  S
O1321      C1330   1.253       .  A
O1321     Al1328   1.892       .  S
O1322     Al1328   1.954       .  S
O1323      C1330   1.260       .  A
O1324     Al1328   1.783       .  S
O1325      C1326   1.267       .  A
C1326      C1465   1.481       .  S
C1327      C1479   1.469       .  S
C1330      C1700   1.492       .  S
C1331      O1332   1.258       .  A
C1331      C1434   1.489       .  S
O1333      C1348   1.257       .  A
O1333     Al1341   1.881       .  S
C1334      O1344   1.272       .  A
C1334      O1335   1.274       .  A
C1334      C1451   1.506       .  S
O1335     Al1337   1.936       .  S
O1336      C1338   1.255       .  A
O1336     Al1337   1.890       .  S
Al1337     O1345   1.902       .  S
Al1337     O1347   1.935       .  S
Al1337     O1346   1.777       .  S
C1338      O1351   1.258       .  A
C1338      C1437   1.478       .  S
O1339      C1349   1.267       .  A
O1339     Al1341   1.925       .  S
O1340      C1353   1.274       .  A
O1340     Al1350   1.949       .  S
Al1341     O1354   1.891       .  S
Al1341     O1351   1.914       .  S
Al1341     O1346   1.786       .  S
O1342      C1349   1.263       .  A
O1342     Al1350   1.909       .  S
O1343      C1352   1.257       .  A
O1343     Al1350   1.921       .  S
O1344     Al1350   1.923       .  S
O1345      C1352   1.255       .  A
O1346     Al1350   1.783       .  S
O1347      C1348   1.267       .  A
C1348      C1395   1.469       .  S
C1349      C1378   1.487       .  S
C1352      C1518   1.496       .  S
C1353      O1354   1.262       .  A
C1353      C1420   1.482       .  S
O1355      C1370   1.270       .  A
O1355     Al1363   1.920       .  S
C1356      O1366   1.285       .  A
C1356      O1357   1.268       .  A
C1356      C1409   1.511       .  S
O1357     Al1359   1.888       .  S
O1358      C1360   1.258       .  A
O1358     Al1359   1.890       .  S
Al1359     O1367   1.914       .  S
Al1359     O1369   1.916       .  S
Al1359     O1368   1.788       .  S
C1360      O1373   1.260       .  A
C1360      C1504   1.496       .  S
O1361      C1371   1.259       .  A
O1361     Al1363   1.918       .  S
O1362      C1375   1.270       .  A
O1362     Al1372   1.952       .  S
Al1363     O1376   1.848       .  S
Al1363     O1373   1.930       .  S
Al1363     O1368   1.791       .  S
O1364      C1371   1.249       .  A
O1364     Al1372   1.857       .  S
O1365      C1374   1.245       .  A
O1365     Al1372   1.891       .  S
O1366     Al1372   1.983       .  S
O1367      C1374   1.252       .  A
O1368     Al1372   1.785       .  S
O1369      C1370   1.271       .  A
C1370      C1381   1.468       .  S
C1371      C1392   1.475       .  S
C1374      C1773   1.492       .  S
C1375      O1376   1.256       .  A
C1375      C1493   1.482       .  S
C1377      C1378   1.407       .  A
C1377      C3430   1.409   1_455  A
C1377      H1384   1.083       .  S
C1378      C1379   1.418       .  A
C1379      C3428   1.394   1_455  A
C1379      N1386   1.430       .  S
C1380      C3427   1.396       .  A
C1380      C1381   1.397       .  A
C1380      H1385   1.085       .  S
C1381      C1382   1.408       .  A
C1382      C3425   1.408       .  A
C1382      N1383   1.428       .  S
N1383      O1387   1.262       .  A
N1383      O1388   1.262       .  A
N1386      O1390   1.262       .  A
N1386      O1389   1.262       .  A
C1391      C1392   1.399       .  A
C1391      C1396   1.407       .  A
C1391      H1398   1.084       .  S
C1392      C1393   1.416       .  A
C1393      C1394   1.395       .  A
C1393      N1400   1.430       .  S
C1394      C1395   1.395       .  A
C1394      H1399   1.085       .  S
C1395      C1396   1.414       .  A
C1396      N1397   1.429       .  S
N1397      O1401   1.262       .  A
N1397      O1402   1.261       .  A
N1400      O1404   1.262       .  A
N1400      O1403   1.262       .  A
C1405      C1406   1.402       .  A
C1405      C1410   1.406       .  A
C1405      H1412   1.084       .  S
C1406      C1407   1.419       .  A
C1407      C1408   1.415       .  A
C1407      N1414   1.429       .  S
C1408      C1409   1.408       .  A
C1408      H1413   1.083       .  S
C1409      C1410   1.424       .  A
C1410      N1411   1.429       .  S
N1411      O1415   1.262       .  A
N1411      O1416   1.262       .  A
N1414      O1418   1.261       .  A
N1414      O1417   1.261       .  A
C1419      C1420   1.406       .  A
C1419      C1424   1.390       .  A
C1419      H1426   1.084       .  S
C1420      C1421   1.408       .  A
C1421      C1422   1.413       .  A
C1421      N1428   1.428       .  S
C1422      C1423   1.410       .  A
C1422      H1427   1.081       .  S
C1423      C1424   1.401       .  A
C1424      N1425   1.427       .  S
N1425      O1429   1.262       .  A
N1425      O1430   1.260       .  A
N1428      O1432   1.262       .  A
N1428      O1431   1.262       .  A
C1433      C1434   1.410       .  A
C1433      C1438   1.391       .  A
C1433      H1440   1.084       .  S
C1434      C1435   1.413       .  A
C1435      N1442   1.429       .  S
C1436      C1437   1.405       .  A
C1436      H1441   1.084       .  S
N1439      O1444   1.262       .  A
N1442      O1446   1.261       .  A
N1442      O1445   1.262       .  A
C1447      C1452   1.405       .  A
C1447      H1454   1.083       .  S
C1448      C3497   1.417       .  A
C1449      C3496   1.416   1_455  A
C1449      C1450   1.413       .  A
C1449      N1456   1.428       .  S
C1450      H1455   1.083       .  S
C1451      C3500   1.418   1_455  A
C1452      C3499   1.417       .  A
C1452      N1453   1.429       .  S
N1453      O1457   1.262       .  A
N1453      O3506   1.262       .  A
N1456      O1460   1.262       .  A
N1456      O1459   1.262       .  A
O1458      N3501   1.262       .  A
C1461      C3510   1.403       .  A
C1461      C1466   1.388       .  A
C1461      H1468   1.083       .  S
C1462      C3509   1.406       .  A
C1462      C1463   1.411       .  A
C1463      C3512   1.416       .  A
C1463      N1470   1.428       .  S
C1464      C3511   1.417       .  A
C1464      C1465   1.410       .  A
C1464      H1469   1.083       .  S
C1465      C1466   1.407       .  A
C1466      N1467   1.430       .  S
N1467      O1471   1.262       .  A
N1467      O1472   1.262       .  A
N1470      O1474   1.262       .  A
N1470      O1473   1.262       .  A
C1475      C1476   1.404       .  A
C1475      C1480   1.406       .  A
C1475      H1482   1.084       .  S
C1476      C1477   1.417       .  A
C1477      C1478   1.391       .  A
C1477      N1484   1.428       .  S
C1478      C1479   1.393       .  A
C1478      H1483   1.085       .  S
C1479      C1480   1.413       .  A
C1480      N1481   1.428       .  S
N1481      O1485   1.262       .  A
N1481      O1486   1.261       .  A
N1484      O1488   1.262       .  A
N1484      O1487   1.261       .  A
C1489      C1494   1.414       .  A
C1491      C1492   1.387       .  A
C1492      C1493   1.397       .  A
C1492      H1497   1.085       .  S
C1493      C1494   1.408       .  A
C1494      N1495   1.422       .  S
N1495      O1499   1.260       .  A
N1495      O1500   1.261       .  A
N1498      O1502   1.262   1_545  A
N1498      O1501   1.262       .  A
C1503      C1504   1.402       .  A
C1503      C1508   1.386       .  A
C1503      H1510   1.084       .  S
C1504      C1505   1.417       .  A
C1505      C1506   1.419       .  A
C1505      N1512   1.427       .  S
C1506      C1507   1.409       .  A
C1506      H1511   1.083       .  S
C1507      C1508   1.415       .  A
C1508      N1509   1.432       .  S
N1509      O1513   1.261       .  A
N1509      O1514   1.262       .  A
N1512      O1516   1.262       .  A
N1512      O1515   1.262       .  A
C1517      C1518   1.407       .  A
C1517      C1522   1.405       .  A
C1517      H1524   1.084       .  S
C1518      C1519   1.417       .  A
C1519      C1520   1.405       .  A
C1519      N1526   1.428       .  S
C1520      C1521   1.402       .  A
C1520      H1525   1.084       .  S
C1521      C1522   1.413       .  A
C1522      N1523   1.429       .  S
N1523      O1527   1.262       .  A
N1523      O1528   1.262       .  A
N1526      O1530   1.262       .  A
N1526      O1529   1.262       .  A
C1531      C1532   1.406       .  A
C1531      C1536   1.417       .  A
C1531      H1538   1.083       .  S
C1532      C1533   1.412       .  A
C1533      C1534   1.387       .  A
C1533      N1540   1.431       .  S
C1534      C1535   1.402       .  A
C1534      H1539   1.083       .  S
C1535      C1536   1.418       .  A
C1536      N1537   1.427       .  S
N1537      O1541   1.262       .  A
N1537      O1542   1.262       .  A
N1540      O1544   1.262       .  A
N1540      O1543   1.261       .  A
C1545      C1550   1.406   1_545  A
C1545      H1552   1.084       .  S
C1546      C1547   1.406       .  A
C1547      N1554   1.428       .  S
C1548      C1549   1.410       .  A
C1548      H1553   1.085       .  S
C1549      C1550   1.410       .  A
C1550      N1551   1.428       .  S
N1551      O1555   1.262       .  A
N1551      O1556   1.262       .  A
N1554      O1558   1.261       .  A
N1554      O1557   1.261       .  A
C1559      C1560   1.405       .  A
C1559      C1564   1.404       .  A
C1559      H1566   1.084       .  S
C1560      C1561   1.413       .  A
C1561      C1562   1.407       .  A
C1561      N1568   1.427       .  S
C1562      C1563   1.406       .  A
C1562      H1567   1.084       .  S
C1563      C1564   1.415       .  A
C1564      N1565   1.429       .  S
N1565      O1569   1.262       .  A
N1565      O1570   1.262       .  A
N1568      O1572   1.261       .  A
N1568      O1571   1.262       .  A
C1573      C1578   1.407       .  A
C1573      H1580   1.083       .  S
C1574      C1575   1.415       .  A
C1575      C1576   1.407       .  A
C1575      N1582   1.429       .  S
C1576      H1581   1.082       .  S
C1577      C1578   1.417       .  A
C1578      N1579   1.429       .  S
N1579      O1583   1.262       .  A
N1579      O1584   1.262       .  A
N1582      O1586   1.262       .  A
N1582      O1585   1.262       .  A
C1587      C1588   1.401       .  A
C1587      C1592   1.383       .  A
C1587      H1594   1.084       .  S
C1588      C1589   1.414       .  A
C1589      C1590   1.413       .  A
C1589      N1596   1.427       .  S
C1590      C1591   1.406       .  A
C1590      H1595   1.083       .  S
C1591      C1592   1.406       .  A
C1592      N1593   1.429       .  S
N1593      O1597   1.262       .  A
N1593      O1598   1.261       .  A
N1596      O1600   1.262       .  A
N1596      O1599   1.261       .  A
C1601      C1602   1.409       .  A
C1601      C3654   1.390       .  A
C1601      H1608   1.084       .  S
C1602      C1603   1.412       .  A
C1603      C1604   1.406       .  A
C1603      N1610   1.427       .  S
C1604      C3653   1.405       .  A
C1604      H1609   1.084       .  S
C1605      C3652   1.404       .  A
C1605      C1606   1.402   1_455  A
C1606      C3649   1.394       .  A
C1606      N1607   1.429       .  S
N1607      O1611   1.262       .  A
N1607      O1612   1.262   1_655  A
N1610      O1614   1.261       .  A
N1610      O1613   1.262       .  A
C1615      C1616   1.407       .  A
C1615      C3668   1.410   1_455  A
C1615      H1622   1.083   1_455  S
C1616      C1617   1.420       .  A
C1617      C1618   1.399       .  A
C1617      N1624   1.430       .  S
C1618      C3667   1.404   1_455  A
C1618      H3671   1.084       .  S
C1619      C3666   1.405       .  A
C1619      C1620   1.418       .  A
C1620      C3663   1.409       .  A
C1620      N1621   1.429       .  S
N1621      O1625   1.262       .  A
N1621      O1626   1.262       .  A
H1623      C3666   1.084       .  S
N1624      O1628   1.262       .  A
N1624      O1627   1.262       .  A
C1629      C1630   1.396       .  A
C1629      C3682   1.398       .  A
C1629      H1636   1.084       .  S
C1630      C1631   1.412       .  A
C1631      C1632   1.405       .  A
C1631      N1638   1.429       .  S
C1632      C3681   1.401       .  A
C1632      H1637   1.084       .  S
C1633      C3680   1.399       .  A
C1633      C1634   1.413       .  A
C1634      C3677   1.397       .  A
C1634      N1635   1.427       .  S
N1635      O1639   1.261       .  A
N1635      O1640   1.262       .  A
N1638      O1642   1.261       .  A
N1638      O1641   1.262       .  A
C1643      C1644   1.406       .  A
C1643      C1648   1.386       .  A
C1643      H1650   1.084       .  S
C1644      C1645   1.414       .  A
C1645      C1646   1.413       .  A
C1645      N1652   1.427       .  S
C1646      C1647   1.405       .  A
C1646      H1651   1.084       .  S
C1647      C1648   1.404       .  A
C1648      N1649   1.431       .  S
N1649      O1653   1.262       .  A
N1649      O1654   1.262       .  A
N1652      O1656   1.262       .  A
N1652      O1655   1.262       .  A
C1657      C1658   1.409       .  A
C1657      H1664   1.084       .  S
C1659      C1660   1.391       .  A
C1660      C1661   1.404       .  A
C1660      H1665   1.085       .  S
C1661      C1662   1.410       .  A
C1662      N1663   1.428       .  S
N1663      O1667   1.261       .  A
N1663      O1668   1.262       .  A
N1666      O1669   1.262       .  A
C1671      C1672   1.400       .  A
C1671      C1676   1.387       .  A
C1671      H1678   1.084       .  S
C1672      C1673   1.415       .  A
C1673      C1674   1.414       .  A
C1673      N1680   1.427       .  S
C1674      C1675   1.406       .  A
C1674      H1679   1.083       .  S
C1675      C1676   1.411       .  A
C1676      N1677   1.430       .  S
N1677      O1681   1.261       .  A
N1677      O1682   1.262       .  A
N1680      O1684   1.262       .  A
N1680      O1683   1.262       .  A
C1685      C3734   1.410       .  A
C1685      C1690   1.411       .  A
C1685      H1692   1.083       .  S
C1686      C3733   1.408   1_455  A
C1686      C1687   1.418       .  A
C1687      C1688   1.411       .  A
C1687      N1694   1.429       .  S
C1688      C3737   1.409   1_455  A
C1688      H1693   1.083       .  S
C1689      C3736   1.411       .  A
C1689      C1690   1.419       .  A
C1690      N1691   1.429       .  S
N1691      O1695   1.262       .  A
N1691      O1696   1.262       .  A
N1694      O1698   1.261       .  A
N1694      O1697   1.262       .  A
C1699      C1700   1.408       .  A
C1699      C1704   1.410       .  A
C1699      H1706   1.084       .  S
C1700      C1701   1.410       .  A
C1701      C1702   1.404       .  A
C1701      N1708   1.427       .  S
C1702      C1703   1.407       .  A
C1702      H1707   1.084       .  S
C1703      C1704   1.412       .  A
C1704      N1705   1.428       .  S
N1705      O1709   1.262       .  A
N1705      O1710   1.262       .  A
N1708      O1712   1.261       .  A
N1708      O1711   1.262       .  A
C1713      C1714   1.410       .  A
C1713      C1718   1.422   1_455  A
C1713      H1720   1.083       .  S
C1714      C1715   1.417       .  A
C1715      C1716   1.387   1_554  A
C1715      N1722   1.434   1_554  S
C1716      C3765   1.405   1_456  A
C1716      H1721   1.083       .  S
C1717      C3764   1.404   1_554  A
C1717      C3766   1.418       .  A
C1718      C3765   1.418       .  A
C1718      N3767   1.427       .  S
N1719      C3766   1.427       .  S
N1719      O1723   1.262       .  A
N1719      O1724   1.262       .  A
N1722      O1726   1.262       .  A
N1722      O1725   1.261       .  A
C1727      C1728   1.401       .  A
C1727      C1732   1.413       .  A
C1727      H1734   1.083       .  S
C1728      C1729   1.406       .  A
C1729      C1730   1.397       .  A
C1729      N1736   1.431   1_556  S
C1730      C1731   1.398       .  A
C1730      H1735   1.073       .  S
C1731      C1732   1.419       .  A
C1732      N1733   1.442       .  S
N1733      O1737   1.263       .  A
N1733      O1738   1.263       .  A
N1736      O1740   1.262       .  A
N1736      O1739   1.262   1_554  A
C1741      C1742   1.392       .  A
C1741      C1746   1.394       .  A
C1741      H1748   1.083   1_554  S
C1742      C1743   1.409       .  A
C1743      C1744   1.398       .  A
C1743      N1750   1.426       .  S
C1744      C1745   1.398       .  A
C1744      H1749   1.084       .  S
C1745      C1746   1.414       .  A
C1746      N1747   1.426       .  S
N1747      O1751   1.262   1_554  A
N1747      O1752   1.261       .  A
N1750      O1754   1.262       .  A
N1750      O1753   1.262       .  A
C1755      C1756   1.403       .  A
C1755      H1762   1.086   1_556  S
C1756      C1757   1.406       .  A
C1757      C1758   1.406       .  A
C1757      N1764   1.427       .  S
C1759      C1760   1.414   1_565  A
C1760      N1761   1.432       .  S
N1761      O1765   1.262       .  A
N1761      O1766   1.262   1_545  A
N1764      O1768   1.262       .  A
N1764      O1767   1.261       .  A
C1769      C1770   1.397       .  A
C1769      C1774   1.399       .  A
C1769      H1776   1.084       .  S
C1770      C1771   1.412       .  A
C1771      C1772   1.404       .  A
C1771      N1778   1.429       .  S
C1772      C1773   1.407       .  A
C1772      H1777   1.084       .  S
C1773      C1774   1.419       .  A
C1774      N1775   1.426       .  S
N1775      O1779   1.262       .  A
N1775      O1780   1.262       .  A
N1778      O1782   1.262       .  A
N1778      O1781   1.262       .  A
C1783      C1788   1.407       .  A
C1783      H1790   1.083       .  S
C1784      C1785   1.414       .  A
C1785      C1786   1.408       .  A
C1785      N1792   1.425       .  S
C1786      H1791   1.084       .  S
C1787      C1788   1.417       .  A
C1788      N1789   1.428       .  S
N1789      O1793   1.262       .  A
N1789      O1794   1.262       .  A
N1792      O1796   1.261       .  A
N1792      O1795   1.262       .  A
C1797      C1798   1.397   1_554  A
C1797      C1802   1.387       .  A
C1797      H1804   1.082       .  S
C1798      C1799   1.408       .  A
C1799      C1800   1.403       .  A
C1799      N1806   1.419       .  S
C1800      C1801   1.400   1_556  A
C1800      H1805   1.084       .  S
C1801      C1802   1.415       .  A
C1802      N1803   1.433       .  S
N1803      O1807   1.262       .  A
N1803      O1808   1.262       .  A
N1806      O1810   1.260       .  A
N1806      O1809   1.261       .  A
C1811      C1812   1.407       .  A
C1811      C3864   1.411       .  A
C1811      H1818   1.082       .  S
C1812      C1813   1.404       .  A
C1813      C1814   1.388   1_554  A
C1813      N1820   1.430   1_554  S
C1814      C3863   1.407   1_556  A
C1814      H1819   1.084       .  S
C1815      C3862   1.406   1_454  A
C1815      C1816   1.414   1_455  A
C1816      C3859   1.413       .  A
C1816      N1817   1.428   1_655  S
N1817      O1821   1.262       .  A
N1817      O1822   1.262       .  A
N1820      O1824   1.262       .  A
N1820      O1823   1.262       .  A
C1825      C1826   1.409       .  A
C1825      H1832   1.082       .  S
C1827      C1828   1.389   1_554  A
C1827      N1834   1.429       .  S
C1828      C1829   1.407       .  A
C1828      H1833   1.084       .  S
C1829      C1830   1.411       .  A
C1830      N1831   1.427       .  S
N1831      O1836   1.262       .  A
N1834      O1838   1.262       .  A
N1834      O1837   1.262       .  A
C1839      C1840   1.398       .  A
C1839      C1844   1.404       .  A
C1839      H1846   1.084       .  S
C1840      C1841   1.410       .  A
C1841      C1842   1.400       .  A
C1841      N1848   1.422       .  S
C1842      C1843   1.396       .  A
C1842      H1847   1.084       .  S
C1843      C1844   1.412       .  A
C1844      N1845   1.426       .  S
N1845      O1849   1.261       .  A
N1845      O1850   1.262       .  A
N1848      O1852   1.261       .  A
N1848      O1851   1.262   1_554  A
C1853      C1854   1.406       .  A
C1853      C1858   1.405       .  A
C1853      H1860   1.084       .  S
C1854      C1855   1.412       .  A
C1855      C1856   1.407       .  A
C1855      N1862   1.428       .  S
C1856      C1857   1.408       .  A
C1856      H1861   1.084       .  S
C1857      C1858   1.416       .  A
C1858      N1859   1.429       .  S
N1859      O1863   1.262       .  A
N1859      O1864   1.262       .  A
N1862      O1866   1.262       .  A
N1862      O1865   1.262       .  A
C1867      C1868   1.398       .  A
C1867      C1872   1.401       .  A
C1867      H1874   1.084       .  S
C1868      C1869   1.413       .  A
C1869      C1870   1.401       .  A
C1869      N1876   1.429       .  S
C1870      C1871   1.405       .  A
C1870      H1875   1.084       .  S
C1871      C1872   1.413       .  A
C1872      N1873   1.421       .  S
N1873      O1877   1.261       .  A
N1873      O1878   1.261       .  A
N1876      O1880   1.262       .  A
N1876      O1879   1.262       .  A
C1881      C1882   1.409       .  A
C1881      C1886   1.410       .  A
C1881      H1888   1.083       .  S
C1882      C1883   1.419       .  A
C1883      C1884   1.412       .  A
C1883      N1890   1.429       .  S
C1884      C1885   1.408       .  A
C1884      H1889   1.084       .  S
C1885      C1886   1.416       .  A
C1886      N1887   1.429       .  S
N1887      O1891   1.262       .  A
N1887      O1892   1.262       .  A
N1890      O1894   1.262       .  A
N1890      O1893   1.261       .  A
C1895      C1896   1.406       .  A
C1895      C1900   1.407       .  A
C1895      H1902   1.084       .  S
C1896      C1897   1.412       .  A
C1897      C1898   1.405       .  A
C1897      N1904   1.424       .  S
C1898      C1899   1.405       .  A
C1898      H1903   1.084       .  S
C1899      C1900   1.416       .  A
C1900      N1901   1.429       .  S
N1901      O1905   1.262       .  A
N1901      O1906   1.262       .  A
N1904      O1908   1.261       .  A
N1904      O1907   1.262       .  A
C1909      C1910   1.400       .  A
C1909      C3962   1.396       .  A
C1909      H1916   1.082       .  S
C1910      C1911   1.425       .  A
C1911      C3960   1.398       .  A
C1911      N1918   1.431       .  S
C1912      C3959   1.397       .  A
C1912      C1913   1.393   1_655  A
C1912      H1917   1.085       .  S
C1913      C1914   1.410   1_455  A
C1914      C3957   1.399       .  A
C1914      N1915   1.426   1_655  S
N1915      O1919   1.262       .  A
N1915      O1920   1.262       .  A
N1918      O1922   1.262       .  A
N1918      O1921   1.261       .  A
C1923      C1924   1.401       .  A
C1923      C1928   1.405       .  A
C1923      H1930   1.084       .  S
C1924      C1925   1.418       .  A
C1925      C1926   1.391       .  A
C1925      N1932   1.428       .  S
C1926      C1927   1.391       .  A
C1926      H1931   1.085       .  S
C1927      C1928   1.411       .  A
C1928      N1929   1.428       .  S
N1929      O1933   1.262       .  A
N1929      O1934   1.261       .  A
N1932      O1936   1.262       .  A
N1932      O1935   1.261       .  A
C1937      C1938   1.405       .  A
C1937      C1942   1.408       .  A
C1937      H1944   1.084       .  S
C1938      C1939   1.412       .  A
C1939      C1940   1.385       .  A
C1939      N1946   1.430       .  S
C1940      C1941   1.399       .  A
C1940      H1945   1.081       .  S
C1941      C1942   1.409       .  A
C1942      N1943   1.424       .  S
N1943      O1947   1.262       .  A
N1943      O1948   1.261       .  A
N1946      O1950   1.261       .  A
N1946      O1949   1.262       .  A
C1951      C1956   1.416       .  A
C1951      H1958   1.084       .  S
C1952      C1953   1.416   1_565  A
C1953      N1960   1.430   1_545  S
C1954      C1955   1.398       .  A
C1954      H1959   1.078       .  S
C1955      C1956   1.412       .  A
C1956      N1957   1.428       .  S
N1957      O1961   1.262       .  A
N1957      O1962   1.262       .  A
N1960      O1964   1.262       .  A
N1960      O1963   1.262   1_565  A
C1965      C1966   1.404       .  A
C1965      C1970   1.410       .  A
C1965      H1972   1.084       .  S
C1966      C1967   1.406       .  A
C1967      C1968   1.392       .  A
C1967      N1974   1.430       .  S
C1968      C1969   1.407       .  A
C1968      H1973   1.084       .  S
C1969      C1970   1.418       .  A
C1970      N1971   1.428       .  S
N1971      O1975   1.262       .  A
N1971      O1976   1.262       .  A
N1974      O1978   1.262       .  A
N1974      O1977   1.262       .  A
C1979      C1980   1.409   1_655  A
C1979      H1986   1.083       .  S
C1980      C1981   1.419   1_565  A
C1981      C3006   1.405       .  A
C1981      N1988   1.429       .  S
C1982      C3005   1.407       .  A
C1982      C1983   1.408       .  A
C1982      H1987   1.084       .  S
C1983      C4032   1.415       .  A
C1984      C4031   1.416       .  A
C1984      N4033   1.428       .  S
N1985      C4032   1.426       .  S
N1985      O4037   1.262       .  A
N1985      O1990   1.261       .  A
N1988      O1992   1.262       .  A
N1988      O1991   1.262       .  A
O1989      N4033   1.262       .  A
C1993      C1994   1.400       .  A
C1993      C1998   1.391       .  A
C1993      H2000   1.081       .  S
C1994      C1995   1.413       .  A
C1995      N2002   1.428       .  S
C1996      C1997   1.412       .  A
C1996      H2001   1.083       .  S
C1998      N1999   1.430   1_565  S
N1999      O2003   1.262   1_545  A
N1999      O2004   1.261       .  A
N2002      O2006   1.262       .  A
N2002      O2005   1.262       .  A
C2007      C2008   1.409       .  A
C2007      C2012   1.415       .  A
C2007      H2014   1.083       .  S
C2008      C2009   1.412       .  A
C2009      C2010   1.389       .  A
C2009      N2016   1.428       .  S
C2010      C2011   1.395       .  A
C2010      H2015   1.084       .  S
C2011      C2012   1.411       .  A
C2012      N2013   1.431       .  S
N2013      O2017   1.262       .  A
N2013      O2018   1.262       .  A
N2016      O2020   1.261       .  A
N2016      O2019   1.262       .  A
C2021      C2022   1.409       .  A
C2021      C2026   1.402       .  A
C2021      H2028   1.083       .  S
C2022      C2023   1.409       .  A
C2023      C4072   1.399   1_455  A
C2023      N2030   1.429       .  S
C2024      C4071   1.398       .  A
C2024      C2025   1.400       .  A
C2024      H2029   1.084       .  S
C2025      C4074   1.400       .  A
C2026      C4073   1.401   1_455  A
C2026      N2027   1.429       .  S
N2027      O2031   1.262       .  A
N2027      O4080   1.262   1_455  A
N2030      O2034   1.262       .  A
N2030      O2033   1.262       .  A
O2032      N4075   1.262       .  A
C2035      C2036   1.398       .  A
C2035      C2040   1.406       .  A
C2035      H2042   1.084       .  S
C2036      C2037   1.411       .  A
C2037      C2038   1.398       .  A
C2037      N2044   1.423       .  S
C2038      C2039   1.397       .  A
C2038      H2043   1.084       .  S
C2039      C2040   1.421       .  A
C2040      N2041   1.430       .  S
N2041      O2045   1.262       .  A
N2041      O2046   1.262       .  A
N2044      O2048   1.262       .  A
N2044      O2047   1.262       .  A
O2049      C2064   1.256       .  A
O2049     Al2057   1.868       .  S
C2050      O2060   1.269       .  A
C2050      O2051   1.277       .  A
C2050      C3007   1.505       .  S
O2051     Al2053   1.957       .  S
O2052      C2054   1.253       .  A
O2052     Al2053   1.877       .  S
Al2053     O2061   1.914       .  S
Al2053     O2063   1.947       .  S
Al2053     O2062   1.779       .  S
C2054      O2067   1.256       .  A
C2054      C3021   1.493       .  S
O2055      C2065   1.261       .  A
O2055     Al2057   1.909       .  S
O2056      C2069   1.268       .  A
O2056     Al2066   1.926       .  S
Al2057     O2070   1.901       .  S
Al2057     O2067   1.924       .  S
Al2057     O2062   1.796       .  S
O2058      C2065   1.259       .  A
O2058     Al2066   1.898       .  S
O2059      C2068   1.252       .  A
O2059     Al2066   1.892       .  S
O2060     Al2066   1.900       .  S
O2061      C2068   1.255       .  A
O2062     Al2066   1.786       .  S
O2063      C2064   1.274       .  A
C2064      C3063   1.482       .  S
C2065      C3049   1.461       .  S
C2068      C2990   1.493       .  S
C2069      O2070   1.265       .  A
C2069      C3035   1.474       .  S
O2071      C2086   1.268       .  A
O2071     Al2079   1.900       .  S
C2072      O2082   1.284       .  A
C2072      O2073   1.275       .  A
C2072      C3004   1.508       .  S
O2073     Al2075   1.907       .  S
O2074      C2076   1.252       .  A
O2074     Al2075   1.894       .  S
Al2075     O2083   1.901       .  S
Al2075     O2085   1.925       .  S
Al2075     O2084   1.786       .  S
C2076      O2089   1.255       .  A
C2076      C2976   1.488       .  S
O2077      C2087   1.252       .  A
O2077     Al2079   1.884       .  S
O2078      C2091   1.266       .  A
O2078     Al2088   1.937       .  S
Al2079     O2092   1.849       .  S
Al2079     O2089   1.912       .  S
Al2079     O2084   1.788       .  S
O2080      C2087   1.254       .  A
O2080     Al2088   1.886       .  S
O2081      C2090   1.249       .  A
O2081     Al2088   1.911       .  S
O2082     Al2088   1.963       .  S
O2083      C2090   1.248       .  A
O2084     Al2088   1.784       .  S
O2085      C2086   1.276       .  A
C2086      C2948   1.474       .  S
C2087      C2937   1.462       .  S
C2090      C2920   1.491       .  S
C2091      O2092   1.255       .  A
C2091      C2965   1.474       .  S
O2093      C2108   1.259       .  A
O2093     Al2101   1.877       .  S
C2094      O2104   1.268       .  A
C2094      O2095   1.274       .  A
C2094      C2906   1.509       .  S
O2095     Al2097   1.949       .  S
O2096      C2098   1.251       .  A
O2096     Al2097   1.865       .  S
Al2097     O2105   1.873       .  S
Al2097     O2107   1.940       .  S
Al2097     O2106   1.769       .  S
C2098      O2111   1.258       .  A
C2098      C2962   1.473       .  S
O2099      C2109   1.269       .  A
O2099     Al2101   1.922       .  S
O2100      C2113   1.270       .  A
O2100     Al2110   1.948       .  S
Al2101     O2114   1.881       .  S
Al2101     O2111   1.922       .  S
Al2101     O2106   1.776       .  S
O2102      C2109   1.267       .  A
O2102     Al2110   1.931       .  S
O2103      C2112   1.261       .  A
O2103     Al2110   1.926       .  S
O2104     Al2110   1.914       .  S
O2105      C2112   1.249       .  A
O2106     Al2110   1.779       .  S
O2107      C2108   1.270       .  A
C2108      C3046   1.475       .  S
C2109      C3060   1.476       .  S
C2112      C2892   1.473       .  S
C2113      O2114   1.263       .  A
C2113      C2979   1.480       .  S
O2115      C2130   1.255       .  A
O2115     Al2123   1.864       .  S
C2116      O2126   1.266       .  A
C2116      O2117   1.274       .  A
C2116      C2909   1.508       .  S
O2117     Al2119   1.954       .  S
O2118      C2120   1.252       .  A
O2118     Al2119   1.877       .  S
Al2119     O2127   1.874       .  S
Al2119     O2129   1.951       .  S
Al2119     O2128   1.766       .  S
C2120      O2133   1.259       .  A
C2120      C3032   1.482       .  S
O2121      C2131   1.263       .  A
O2121     Al2123   1.891       .  S
O2122      C2135   1.268       .  A
O2122     Al2132   1.948       .  S
Al2123     O2136   1.900       .  S
Al2123     O2133   1.940       .  S
Al2123     O2128   1.789       .  S
O2124      C2131   1.272       .  A
O2124     Al2132   1.935       .  S
O2125      C2134   1.263       .  A
O2125     Al2132   1.947       .  S
O2126     Al2132   1.909       .  S
O2127      C2134   1.252       .  A
O2128     Al2132   1.783       .  S
O2129      C2130   1.275       .  A
C2130      C2934   1.482       .  S
C2131      C2951   1.465       .  S
C2134      C2878   1.489       .  S
C2135      O2136   1.262       .  A
C2135      C3018   1.484       .  S
O2137      C2152   1.264       .  A
O2137     Al2145   1.913       .  S
C2138      O2148   1.273       .  A
C2138      O2139   1.266       .  A
C2138      C2808   1.509       .  S
O2139     Al2141   1.908       .  S
O2140      C2142   1.267       .  A
O2140     Al2141   1.917       .  S
Al2141     O2149   1.921       .  S
Al2141     O2151   1.936       .  S
Al2141     O2150   1.777       .  S
C2142      O2155   1.265   1_554  A
C2142      C2850   1.474   1_554  S
O2143      C2153   1.262       .  A
O2143     Al2145   1.939       .  S
O2144      C2157   1.270       .  A
O2144     Al2154   1.942       .  S
Al2145     O2158   1.875       .  S
Al2145     O2155   1.913   1_554  S
Al2145     O2150   1.788       .  S
O2146      C2153   1.250       .  A
O2146     Al2154   1.854       .  S
O2147      C2156   1.251       .  A
O2147     Al2154   1.881       .  S
O2148     Al2154   1.958       .  S
O2149      C2156   1.261       .  A
O2150     Al2154   1.777       .  S
O2151      C2152   1.267       .  A
C2152      C2836   1.482       .  S
C2153      C2825   1.476       .  S
C2156      C2794   1.478       .  S
C2157      O2158   1.259       .  A
C2157      C2867   1.475       .  S
O2159      C2174   1.258       .  A
O2159     Al2167   1.865       .  S
C2160      O2170   1.279       .  A
C2160      O2161   1.286       .  A
C2160      C2811   1.504       .  S
O2161     Al2163   1.955       .  S
O2162      C2164   1.255       .  A
O2162     Al2163   1.899       .  S
Al2163     O2171   1.920       .  S
Al2163     O2173   1.952       .  S
Al2163     O2172   1.794       .  S
C2164      O2177   1.250       .  A
C2164      C2783   1.477   1_554  S
O2165      C2175   1.246   1_556  A
O2165     Al2167   1.899   1_556  S
O2166      C2179   1.271       .  A
O2166     Al2176   1.906       .  S
Al2167     O2180   1.902       .  S
Al2167     O2177   1.880       .  S
Al2167     O2172   1.785       .  S
O2168      C2175   1.247       .  A
O2168     Al2176   1.885       .  S
O2169      C2178   1.241       .  A
O2169     Al2176   1.856       .  S
O2170     Al2176   1.920       .  S
O2171      C2178   1.249       .  A
O2172     Al2176   1.786       .  S
O2173      C2174   1.273       .  A
C2174      C2738   1.489       .  S
C2175      C2752   1.469   1_554  S
C2178      C2727   1.490       .  S
C2179      O2180   1.267       .  A
C2179      C2769   1.473       .  S
O2181      C2196   1.261       .  A
O2181     Al2189   1.895       .  S
C2182      O2192   1.274       .  A
C2182      O2183   1.274       .  A
C2182      C2713   1.512       .  S
O2183     Al2185   1.942       .  S
O2184      C2186   1.254       .  A
O2184     Al2185   1.890       .  S
Al2185     O2193   1.904       .  S
Al2185     O2195   1.929       .  S
Al2185     O2194   1.784       .  S
C2186      O2199   1.255   1_556  A
C2186      C2864   1.472   1_556  S
O2187      C2197   1.271   1_554  A
O2187     Al2189   1.945   1_554  S
O2188      C2201   1.273       .  A
O2188     Al2198   1.962       .  S
Al2189     O2202   1.885       .  S
Al2189     O2199   1.908   1_556  S
Al2189     O2194   1.794       .  S
O2190      C2197   1.264       .  A
O2190     Al2198   1.897       .  S
O2191      C2200   1.253       .  A
O2191     Al2198   1.907       .  S
O2192     Al2198   1.931       .  S
O2193      C2200   1.253       .  A
O2194     Al2198   1.786       .  S
O2195      C2196   1.268       .  A
C2196      C2755   1.478       .  S
C2197      C2741   1.501   1_556  S
C2200      C2881   1.494       .  S
C2201      O2202   1.259       .  A
C2201      C2853   1.487       .  S
O2203      C2218   1.255       .  A
O2203     Al2211   1.859       .  S
C2204      O2214   1.269       .  A
C2204      O2205   1.275       .  A
C2204      C2710   1.509       .  S
O2205     Al2207   1.957       .  S
O2206      C2208   1.255       .  A
O2206     Al2207   1.871       .  S
Al2207     O2215   1.897       .  S
Al2207     O2217   1.937       .  S
Al2207     O2216   1.785       .  S
C2208      O2221   1.255   1_556  A
C2208      C2766   1.467   1_556  S
O2209      C2219   1.262   1_554  A
O2209     Al2211   1.922   1_554  S
O2210      C2223   1.270       .  A
O2210     Al2220   1.929       .  S
Al2211     O2224   1.883       .  S
Al2211     O2221   1.904   1_556  S
Al2211     O2216   1.792       .  S
O2212      C2219   1.258       .  A
O2212     Al2220   1.892       .  S
O2213      C2222   1.255       .  A
O2213     Al2220   1.907       .  S
O2214     Al2220   1.905       .  S
O2215      C2222   1.251       .  A
O2216     Al2220   1.786       .  S
O2217      C2218   1.266       .  A
C2218      C2822   1.470       .  S
C2219      C2839   1.489   1_556  S
C2222      C2895   1.490       .  S
C2223      O2224   1.262       .  A
C2223      C2780   1.462       .  S
O2225      C2240   1.260       .  A
O2225     Al2233   1.887       .  S
C2226      O2236   1.281       .  A
C2226      O2227   1.282       .  A
C2226      C2643   1.493       .  S
O2227     Al2229   1.946       .  S
O2228      C2230   1.255       .  A
O2228     Al2229   1.866       .  S
Al2229     O2237   1.906       .  S
Al2229     O2239   1.920       .  S
Al2229     O2238   1.774       .  S
C2230      O2243   1.255       .  A
C2230      C2696   1.478       .  S
O2231      C2241   1.252       .  A
O2231     Al2233   1.912       .  S
O2232      C2245   1.279       .  A
O2232     Al2242   1.926       .  S
Al2233     O2246   1.907       .  S
Al2233     O2243   1.906       .  S
Al2233     O2238   1.784       .  S
O2234      C2241   1.250       .  A
O2234     Al2242   1.906       .  S
O2235      C2244   1.247       .  A
O2235     Al2242   1.903       .  S
O2236     Al2242   1.913       .  S
O2237      C2244   1.246       .  A
O2238     Al2242   1.787       .  S
O2239      C2240   1.264       .  A
C2240      C2671   1.472       .  S
C2241      C2657   1.480   1_655  S
C2244      C2993   1.480       .  S
C2245      O2246   1.275       .  A
C2245      C2685   1.474       .  S
O2247      C2262   1.259       .  A
O2247     Al2255   1.873       .  S
C2248      O2258   1.263       .  A
C2248      O2249   1.268       .  A
C2248      C2601   1.494       .  S
O2249     Al2251   1.923       .  S
O2250      C2252   1.256       .  A
O2250     Al2251   1.892       .  S
Al2251     O2259   1.898       .  S
Al2251     O2261   1.927       .  S
Al2251     O2260   1.781       .  S
C2252      O2265   1.255       .  A
C2252      C2682   1.474       .  S
O2253      C2263   1.267       .  A
O2253     Al2255   1.926       .  S
O2254      C2267   1.266       .  A
O2254     Al2264   1.934       .  S
Al2255     O2268   1.879       .  S
Al2255     O2265   1.900       .  S
Al2255     O2260   1.788       .  S
O2256      C2263   1.267       .  A
O2256     Al2264   1.903       .  S
O2257      C2266   1.261       .  A
O2257     Al2264   1.919       .  S
O2258     Al2264   1.899       .  S
O2259      C2266   1.255       .  A
O2260     Al2264   1.778       .  S
O2261      C2262   1.266       .  A
C2262      C2626   1.467       .  S
C2263      C2612   1.488       .  S
C2266      C2584   1.491       .  S
C2267      O2268   1.257       .  A
C2267      C2699   1.469       .  S
O2269      C2284   1.261       .  A
O2269     Al2277   1.881       .  S
C2270      O2280   1.266       .  A
C2270      O2271   1.271       .  A
C2270      C2598   1.496       .  S
O2271     Al2273   1.929       .  S
O2272      C2274   1.254       .  A
O2272     Al2273   1.894       .  S
Al2273     O2281   1.907       .  S
Al2273     O2283   1.926       .  S
Al2273     O2282   1.789       .  S
C2274      O2287   1.253       .  A
C2274      C2570   1.473       .  S
O2275      C2285   1.267       .  A
O2275     Al2277   1.942       .  S
O2276      C2289   1.271       .  A
O2276     Al2286   1.949       .  S
Al2277     O2290   1.878       .  S
Al2277     O2287   1.902       .  S
Al2277     O2282   1.795       .  S
O2278      C2285   1.259       .  A
O2278     Al2286   1.881       .  S
O2279      C2288   1.253       .  A
O2279     Al2286   1.907       .  S
O2280     Al2286   1.902       .  S
O2281      C2288   1.255       .  A
O2282     Al2286   1.793       .  S
O2283      C2284   1.266       .  A
C2284      C2654   1.471       .  S
C2285      C2668   1.493       .  S
C2288      C2545   1.490       .  S
C2289      O2290   1.259       .  A
C2289      C2556   1.480       .  S
O2291      C2306   1.263       .  A
O2291     Al2299   1.897       .  S
C2292      O2302   1.275       .  A
C2292      O2293   1.263       .  A
C2292      C2640   1.500       .  S
O2293     Al2295   1.885       .  S
O2294      C2296   1.267       .  A
O2294     Al2295   1.912       .  S
Al2295     O2303   1.923       .  S
Al2295     O2305   1.937       .  S
Al2295     O2304   1.782       .  S
C2296      O2309   1.264       .  A
C2296      C2559   1.492       .  S
O2297      C2307   1.255       .  A
O2297     Al2299   1.913       .  S
O2298      C2311   1.272       .  A
O2298     Al2308   1.956       .  S
Al2299     O2312   1.852       .  S
Al2299     O2309   1.921       .  S
Al2299     O2304   1.787       .  S
O2300      C2307   1.251       .  A
O2300     Al2308   1.870       .  S
O2301      C2310   1.252       .  A
O2301     Al2308   1.892       .  S
O2302     Al2308   1.954       .  S
O2303      C2310   1.259       .  A
O2304     Al2308   1.780       .  S
O2305      C2306   1.269       .  A
C2306      C2615   1.475       .  S
C2307      C2629   1.469       .  S
C2310      C2923   1.490       .  S
C2311      O2312   1.257       .  A
C2311      C2573   1.480       .  S
O2313      C2328   1.256       .  A
O2313     Al2321   1.865       .  S
C2314      O2324   1.273       .  A
C2314      O2315   1.284       .  A
C2314      C2472   1.499       .  S
O2315     Al2317   1.968       .  S
O2316      C2318   1.246       .  A
O2316     Al2317   1.844       .  S
Al2317     O2325   1.886       .  S
Al2317     O2327   1.930       .  S
Al2317     O2326   1.773       .  S
C2318      O2331   1.264       .  A
C2318      C2514   1.494       .  S
O2319      C2329   1.258       .  A
O2319     Al2321   1.929       .  S
O2320      C2333   1.278       .  A
O2320     Al2330   1.927       .  S
Al2321     O2334   1.923       .  S
Al2321     O2331   1.939       .  S
Al2321     O2326   1.793       .  S
O2322      C2329   1.253       .  A
O2322     Al2330   1.880       .  S
O2323      C2332   1.250       .  A
O2323     Al2330   1.922       .  S
O2324     Al2330   1.902       .  S
O2325      C2332   1.244       .  A
O2326     Al2330   1.788       .  S
O2327      C2328   1.265       .  A
C2328      C2500   1.473       .  S
C2329      C2486   1.494   1_655  S
C2332      C2587   1.488       .  S
C2333      O2334   1.275       .  A
C2333      C2531   1.472       .  S
O2335      C2350   1.268       .  A
O2335     Al2343   1.912       .  S
C2336      O2346   1.277       .  A
C2336      O2337   1.268       .  A
C2336      C2430   1.489       .  S
O2337     Al2339   1.900       .  S
O2338      C2340   1.265       .  A
O2338     Al2339   1.930       .  S
Al2339     O2347   1.929       .  S
Al2339     O2349   1.933       .  S
Al2339     O2348   1.792       .  S
C2340      O2353   1.258       .  A
C2340      C2447   1.477       .  S
O2341      C2351   1.259       .  A
O2341     Al2343   1.919       .  S
O2342      C2355   1.267       .  A
O2342     Al2352   1.942       .  S
Al2343     O2356   1.847       .  S
Al2343     O2353   1.901       .  S
Al2343     O2348   1.789       .  S
O2344      C2351   1.252       .  A
O2344     Al2352   1.869       .  S
O2345      C2354   1.247       .  A
O2345     Al2352   1.884       .  S
O2346     Al2352   1.952       .  S
O2347      C2354   1.257       .  A
O2348     Al2352   1.783       .  S
O2349      C2350   1.269       .  A
C2350      C2489   1.480       .  S
C2351      C2503   1.483       .  S
C2354      C2724   1.481       .  S
C2355      O2356   1.255       .  A
C2355      C2458   1.485       .  S
O2357      C2372   1.260       .  A
O2357     Al2365   1.888       .  S
C2358      O2368   1.272       .  A
C2358      O2359   1.276       .  A
C2358      C2475   1.510       .  S
O2359     Al2361   1.944       .  S
O2360      C2362   1.255       .  A
O2360     Al2361   1.894       .  S
Al2361     O2369   1.906       .  S
Al2361     O2371   1.949       .  S
Al2361     O2370   1.776       .  S
C2362      O2375   1.253       .  A
C2362      C2461   1.471   1_545  S
O2363      C2373   1.268       .  A
O2363     Al2365   1.928       .  S
O2364      C2377   1.274       .  A
O2364     Al2374   1.957       .  S
Al2365     O2378   1.884       .  S
Al2365     O2375   1.903       .  S
Al2365     O2370   1.788       .  S
O2366      C2373   1.264       .  A
O2366     Al2374   1.915       .  S
O2367      C2376   1.255       .  A
O2367     Al2374   1.914       .  S
O2368     Al2374   1.923       .  S
O2369      C2376   1.255       .  A
O2370     Al2374   1.785       .  S
O2371      C2372   1.271       .  A
C2372      C2419   1.478       .  S
C2373      C2402   1.482       .  S
C2376      C2542   1.494       .  S
C2377      O2378   1.259       .  A
C2377      C2444   1.484       .  S
O2379      C2394   1.267       .  A
O2379     Al2387   1.923       .  S
C2380      O2390   1.279       .  A
C2380      O2381   1.264       .  A
C2380      C2433   1.500       .  S
O2381     Al2383   1.881       .  S
O2382      C2384   1.266       .  A
O2382     Al2383   1.916       .  S
Al2383     O2391   1.922       .  S
Al2383     O2393   1.925       .  S
Al2383     O2392   1.781       .  S
C2384      O2397   1.264       .  A
C2384      C2528   1.484       .  S
O2385      C2395   1.261       .  A
O2385     Al2387   1.932       .  S
O2386      C2399   1.270       .  A
O2386     Al2396   1.950       .  S
Al2387     O2400   1.837       .  S
Al2387     O2397   1.916       .  S
Al2387     O2392   1.780       .  S
O2388      C2395   1.253       .  A
O2388     Al2396   1.880       .  S
O2389      C2398   1.250       .  A
O2389     Al2396   1.893       .  S
O2390     Al2396   1.963       .  S
O2391      C2398   1.258       .  A
O2392     Al2396   1.781       .  S
O2393      C2394   1.269       .  A
C2394      C2405   1.472       .  S
C2395      C2416   1.480       .  S
C2398      C2797   1.492       .  S
C2399      O2400   1.254       .  A
C2399      C2517   1.466       .  S
C2401      C2402   1.403       .  A
C2401      H2408   1.084       .  S
C2402      C2403   1.416       .  A
C2403      N2410   1.430       .  S
C2404      C2405   1.397       .  A
C2404      H2409   1.084       .  S
C2405      C2406   1.410       .  A
C2406      N2407   1.428       .  S
N2407      O2411   1.262       .  A
N2407      O2412   1.261       .  A
N2410      O2414   1.262       .  A
N2410      O2413   1.262       .  A
C2415      C2416   1.400       .  A
C2415      C2420   1.410       .  A
C2415      H2422   1.084       .  S
C2416      C2417   1.414       .  A
C2417      C2418   1.399       .  A
C2417      N2424   1.429       .  S
C2418      C2419   1.397       .  A
C2418      H2423   1.084       .  S
C2419      C2420   1.415       .  A
C2420      N2421   1.429       .  S
N2421      O2425   1.262       .  A
N2421      O2426   1.261       .  A
N2424      O2428   1.262       .  A
N2424      O2427   1.262       .  A
C2429      C2430   1.400       .  A
C2429      C2434   1.402       .  A
C2429      H2436   1.085       .  S
C2430      C2431   1.414       .  A
C2431      C2432   1.409       .  A
C2431      N2438   1.429       .  S
C2432      C2433   1.407       .  A
C2432      H2437   1.083       .  S
C2433      C2434   1.422       .  A
C2434      N2435   1.429       .  S
N2435      O2439   1.262       .  A
N2435      O2440   1.262       .  A
N2438      O2442   1.261       .  A
N2438      O2441   1.261       .  A
C2443      C2444   1.408       .  A
C2443      C2448   1.390       .  A
C2443      H2450   1.084       .  S
C2444      C2445   1.407       .  A
C2445      C2446   1.413       .  A
C2445      N2452   1.427       .  S
C2446      C2447   1.411       .  A
C2446      H2451   1.082       .  S
C2447      C2448   1.400       .  A
C2448      N2449   1.427       .  S
N2449      O2453   1.262       .  A
N2449      O2454   1.261       .  A
N2452      O2456   1.262       .  A
N2452      O2455   1.262       .  A
C2457      C2458   1.409       .  A
C2457      C2462   1.391       .  A
C2457      H2464   1.084       .  S
C2458      C2459   1.412       .  A
C2459      C3484   1.406       .  A
C2459      N2466   1.427       .  S
C2460      C3483   1.405       .  A
C2460      C2461   1.404       .  A
C2460      H2465   1.084   1_565  S
C2461      C3486   1.403       .  A
C2462      C3485   1.402       .  A
C2462      N3487   1.428       .  S
N2463      C3486   1.430       .  S
N2463      O3491   1.262       .  A
N2463      O2468   1.262       .  A
N2466      O2470   1.261       .  A
N2466      O2469   1.262       .  A
O2467      N3487   1.262       .  A
C2471      C3496   1.406   1_545  A
C2471      C2476   1.413       .  A
C2471      H2478   1.078       .  S
C2472      C3495   1.405       .  A
C2473      C2474   1.408       .  A
C2473      N2480   1.429       .  S
C2474      C3499   1.412       .  A
C2474      H2479   1.083       .  S
C2475      C3498   1.410   1_545  A
C2476      N2477   1.429       .  S
N2477      O2481   1.262       .  A
N2480      O2484   1.262       .  A
N2480      O2483   1.262       .  A
C2485      C2490   1.386       .  A
C2485      H2492   1.082       .  S
C2486      C2487   1.415       .  A
C2487      N2494   1.427       .  S
C2488      C2489   1.412       .  A
C2488      H2493   1.083       .  S
C2489      C2490   1.403       .  A
C2490      N2491   1.430       .  S
N2491      O2495   1.261       .  A
N2491      O2496   1.262       .  A
N2494      O2498   1.262   1_455  A
N2494      O2497   1.262       .  A
C2499      C2500   1.398       .  A
C2499      C2504   1.390       .  A
C2499      H2506   1.085       .  S
C2500      C2501   1.410       .  A
C2501      C2502   1.410       .  A
C2501      N2508   1.427       .  S
C2502      C2503   1.407       .  A
C2502      H2507   1.084       .  S
C2503      C2504   1.414       .  A
C2504      N2505   1.429       .  S
N2505      O2509   1.261       .  A
N2505      O2510   1.262       .  A
N2508      O2512   1.261       .  A
N2508      O2511   1.261       .  A
C2513      C3538   1.411       .  A
C2513      C2518   1.408   1_565  A
C2513      H3544   1.083       .  S
C2514      C3537   1.411       .  A
C2514      C3539   1.423       .  A
C2515      C3538   1.420   1_545  A
C2515      C2516   1.382       .  A
C2515      N3546   1.432       .  S
C2516      C2517   1.394       .  A
C2516      H2521   1.086       .  S
C2517      C2518   1.403       .  A
C2518      N2519   1.422       .  S
N2519      O2523   1.261       .  A
N2519      O2524   1.261       .  A
H2520      C3537   1.083       .  S
N2522      C3539   1.432       .  S
N2522      O2526   1.262       .  A
N2522      O2525   1.262       .  A
C2527      C2528   1.404       .  A
C2527      C2532   1.391       .  A
C2527      H2534   1.084       .  S
C2528      C2529   1.413       .  A
C2529      C2530   1.410       .  A
C2529      N2536   1.428       .  S
C2530      C2531   1.404       .  A
C2530      H2535   1.082       .  S
C2531      C2532   1.405       .  A
C2532      N2533   1.428       .  S
N2533      O2537   1.262       .  A
N2533      O2538   1.262       .  A
N2536      O2540   1.262       .  A
N2536      O2539   1.262       .  A
C2541      C2542   1.406       .  A
C2541      C2546   1.406       .  A
C2541      H2548   1.084       .  S
C2542      C2543   1.416       .  A
C2543      C2544   1.405       .  A
C2543      N2550   1.428       .  S
C2544      C2545   1.403       .  A
C2544      H2549   1.084       .  S
C2545      C2546   1.415       .  A
C2546      N2547   1.429       .  S
N2547      O2551   1.262       .  A
N2547      O2552   1.262       .  A
N2550      O2554   1.262       .  A
N2550      O2553   1.262       .  A
C2555      C2556   1.406       .  A
C2555      C2560   1.416       .  A
C2555      H2562   1.083       .  S
C2556      C2557   1.409       .  A
C2557      C2558   1.386       .  A
C2557      N2564   1.430       .  S
C2558      C2559   1.401       .  A
C2558      H2563   1.083       .  S
C2559      C2560   1.417       .  A
C2560      N2561   1.428       .  S
N2561      O2565   1.262       .  A
N2561      O2566   1.261       .  A
N2564      O2568   1.262       .  A
N2564      O2567   1.261       .  A
C2569      C3594   1.406       .  A
C2569      C2574   1.405       .  A
C2569      H2576   1.084       .  S
C2570      C3593   1.407       .  A
C2570      C2571   1.401   1_545  A
C2571      C3596   1.396       .  A
C2571      N2578   1.428       .  S
C2572      C3595   1.396       .  A
C2572      C2573   1.409       .  A
C2572      H2577   1.085       .  S
C2573      C2574   1.410       .  A
C2574      N2575   1.428       .  S
N2575      O2579   1.262       .  A
N2575      O2580   1.262       .  A
N2578      O2582   1.261       .  A
N2578      O2581   1.261       .  A
C2583      C2584   1.404       .  A
C2583      C2588   1.401       .  A
C2583      H2590   1.084       .  S
C2584      C2585   1.416       .  A
C2585      C2586   1.406       .  A
C2585      N2592   1.429       .  S
C2586      C2587   1.405       .  A
C2586      H2591   1.084       .  S
C2587      C2588   1.412       .  A
C2588      N2589   1.428       .  S
N2589      O2593   1.262       .  A
N2589      O2594   1.262       .  A
N2592      O2596   1.262       .  A
N2592      O2595   1.262       .  A
C2597      C3622   1.406       .  A
C2597      C2602   1.404       .  A
C2597      H2604   1.084       .  S
C2598      C3621   1.407   1_545  A
C2598      C2599   1.415       .  A
C2599      C2600   1.405       .  A
C2599      N2606   1.429       .  S
C2600      C3625   1.407   1_545  A
C2600      H2605   1.083       .  S
C2601      C3624   1.408       .  A
C2601      C2602   1.417       .  A
C2602      N2603   1.430       .  S
N2603      O2607   1.262       .  A
N2603      O2608   1.262       .  A
N2606      O2610   1.262       .  A
N2606      O2609   1.262       .  A
C2611      C2612   1.401       .  A
C2611      C2616   1.384       .  A
C2611      H2618   1.084       .  S
C2612      C2613   1.415       .  A
C2613      C2614   1.416       .  A
C2613      N2620   1.427       .  S
C2614      C2615   1.408       .  A
C2614      H2619   1.083       .  S
C2615      C2616   1.405       .  A
C2616      N2617   1.428       .  S
N2617      O2621   1.262       .  A
N2617      O2622   1.261       .  A
N2620      O2624   1.262       .  A
N2620      O2623   1.261       .  A
C2625      C2626   1.406       .  A
C2625      H2632   1.084       .  S
C2626      C2627   1.406       .  A
C2627      C2628   1.395   1_655  A
C2627      N2634   1.429       .  S
C2628      H2633   1.085       .  S
C2629      C2630   1.404       .  A
C2630      N2631   1.429       .  S
N2631      O2635   1.261       .  A
N2631      O2636   1.262       .  A
N2634      O2638   1.262       .  A
N2634      O2637   1.261       .  A
C2639      C2640   1.407       .  A
C2639      H2646   1.083       .  S
C2640      C2641   1.419       .  A
C2641      C2642   1.400       .  A
C2641      N2648   1.429       .  S
C2643      C2644   1.416       .  A
C2644      N2645   1.429       .  S
N2645      O2649   1.262       .  A
N2645      O2650   1.262       .  A
N2648      O2652   1.262       .  A
N2648      O2651   1.262       .  A
C2653      C2654   1.397       .  A
C2653      H2660   1.084       .  S
C2654      C2655   1.410       .  A
C2655      C2656   1.402       .  A
C2655      N2662   1.427       .  S
C2656      H2661   1.084       .  S
C2657      C2658   1.414       .  A
C2658      N2659   1.427       .  S
N2659      O2663   1.262       .  A
N2659      O2664   1.262   1_455  A
N2662      O2666   1.261       .  A
N2662      O2665   1.262       .  A
C2667      C2668   1.408       .  A
C2667      C2672   1.387       .  A
C2667      H2674   1.084       .  S
C2668      C2669   1.414       .  A
C2669      C2670   1.415       .  A
C2669      N2676   1.427       .  S
C2670      C2671   1.407       .  A
C2670      H2675   1.083       .  S
C2671      C2672   1.403       .  A
C2672      N2673   1.430       .  S
N2673      O2677   1.262       .  A
N2673      O2678   1.262       .  A
N2676      O2680   1.262       .  A
N2676      O2679   1.261       .  A
C2681      C2682   1.408       .  A
C2681      C3710   1.404       .  A
C2681      H2688   1.084       .  S
C2682      C3707   1.406       .  A
C2683      C3706   1.404   1_545  A
C2683      C2684   1.393       .  A
C2683      N3714   1.429       .  S
C2684      C2685   1.406       .  A
C2684      H2689   1.085       .  S
C2685      C2686   1.408       .  A
C2686      C3705   1.404   1_545  A
C2686      N2687   1.428       .  S
N2687      O2691   1.261       .  A
N2687      O2692   1.262       .  A
N2690      C3707   1.429       .  S
N2690      O3718   1.262       .  A
N2690      O2693   1.262       .  A
O2694      N3714   1.261       .  A
C2695      C2696   1.399       .  A
C2695      C2700   1.383       .  A
C2695      H2702   1.085       .  S
C2696      C2697   1.413       .  A
C2697      C2698   1.412       .  A
C2697      N2704   1.427       .  S
C2698      C2699   1.406       .  A
C2698      H2703   1.084       .  S
C2699      C2700   1.408       .  A
C2700      N2701   1.429       .  S
N2701      O2705   1.261       .  A
N2701      O2706   1.262       .  A
N2704      O2708   1.262       .  A
N2704      O2707   1.262       .  A
C2709      C2714   1.407       .  A
C2709      H2716   1.084       .  S
C2710      C2711   1.418       .  A
C2711      C2712   1.412       .  A
C2711      N2718   1.428       .  S
C2712      H2717   1.084       .  S
C2713      C2714   1.419       .  A
C2714      N2715   1.429       .  S
N2715      O2719   1.262       .  A
N2715      O2720   1.262       .  A
N2718      O2722   1.261       .  A
N2718      O2721   1.262       .  A
C2723      C2724   1.406       .  A
C2723      C2728   1.407       .  A
C2723      H2730   1.084       .  S
C2724      C2725   1.407       .  A
C2725      C2726   1.400       .  A
C2725      N2732   1.428       .  S
C2726      C2727   1.408       .  A
C2726      H2731   1.084       .  S
C2727      C2728   1.412       .  A
C2728      N2729   1.428       .  S
N2729      O2733   1.262       .  A
N2729      O2734   1.262       .  A
N2732      O2736   1.262       .  A
N2732      O2735   1.261       .  A
C2737      C2738   1.410       .  A
C2737      C2742   1.420       .  A
C2737      H2744   1.083       .  S
C2738      C2739   1.416   1_554  A
C2739      C2740   1.385       .  A
C2739      N2746   1.434       .  S
C2740      H2745   1.083       .  S
N2743      O2747   1.262       .  A
N2743      O2748   1.262       .  A
N2746      O2750   1.262       .  A
N2746      O2749   1.261       .  A
C2751      C2752   1.398       .  A
C2751      C2756   1.409       .  A
C2751      H2758   1.090       .  S
C2752      C2753   1.410       .  A
C2753      C2754   1.390       .  A
C2753      N2760   1.431       .  S
C2754      C2755   1.391       .  A
C2754      H2759   1.128       .  S
C2755      C2756   1.420       .  A
C2756      N2757   1.441       .  S
N2757      O2761   1.263       .  A
N2757      O2762   1.263       .  A
N2760      O2764   1.262   1_556  A
N2760      O2763   1.262       .  A
C2765      C2766   1.394       .  A
C2765      C2770   1.393       .  A
C2765      H2772   1.084   1_554  S
C2766      C2767   1.411       .  A
C2767      C2768   1.400       .  A
C2767      N2774   1.426       .  S
C2768      C2769   1.399       .  A
C2768      H2773   1.084       .  S
C2769      C2770   1.416       .  A
C2770      N2771   1.428   1_554  S
N2771      O2775   1.262       .  A
N2771      O2776   1.261   1_556  A
N2774      O2778   1.262       .  A
N2774      O2777   1.262       .  A
C2779      C2780   1.400       .  A
C2779      C3808   1.394   1_556  A
C2779      H2786   1.085       .  S
C2780      C2781   1.407       .  A
C2781      C2782   1.403       .  A
C2781      N2788   1.426       .  S
C2782      C3807   1.403   1_545  A
C2782      H3811   1.084       .  S
C2783      C3806   1.405       .  A
C2783      C2784   1.413   1_556  A
C2784      C3803   1.395   1_554  A
C2784      N2785   1.432       .  S
N2785      O2789   1.262       .  A
N2785      O2790   1.261       .  A
H2787      C3806   1.084       .  S
N2788      O2792   1.262       .  A
N2788      O2791   1.261       .  A
C2793      C2794   1.396       .  A
C2793      C2798   1.399       .  A
C2793      H2800   1.084       .  S
C2794      C2795   1.411       .  A
C2795      C2796   1.403       .  A
C2795      N2802   1.429       .  S
C2796      C2797   1.407       .  A
C2796      H2801   1.084       .  S
C2797      C2798   1.420       .  A
C2798      N2799   1.427       .  S
N2799      O2803   1.262       .  A
N2799      O2804   1.262       .  A
N2802      O2806   1.262       .  A
N2802      O2805   1.262       .  A
C2807      C3832   1.407       .  A
C2807      C2812   1.409       .  A
C2807      H2814   1.083       .  S
C2808      C3831   1.406   1_545  A
C2808      C2809   1.417       .  A
C2809      C2810   1.413       .  A
C2809      N2816   1.426       .  S
C2810      C3835   1.409   1_545  A
C2810      H2815   1.084       .  S
C2811      C3834   1.406       .  A
C2811      C2812   1.417       .  A
C2812      N2813   1.429       .  S
N2813      O2817   1.262       .  A
N2813      O2818   1.262       .  A
N2816      O2820   1.262       .  A
N2816      O2819   1.262       .  A
C2821      C2822   1.395   1_554  A
C2821      C2826   1.386       .  A
C2821      H2828   1.083       .  S
C2822      C2823   1.409       .  A
C2823      C2824   1.407       .  A
C2823      N2830   1.422       .  S
C2824      C2825   1.403   1_556  A
C2824      H2829   1.084       .  S
C2825      C2826   1.414       .  A
C2826      N2827   1.432       .  S
N2827      O2831   1.262       .  A
N2827      O2832   1.261       .  A
N2830      O2834   1.261       .  A
N2830      O2833   1.261       .  A
C2835      C2836   1.408       .  A
C2835      H2842   1.081       .  S
C2836      C2837   1.405       .  A
C2837      C2838   1.391   1_554  A
C2837      N2844   1.429   1_554  S
C2838      H2843   1.084   1_655  S
C2839      C2840   1.413       .  A
C2840      N2841   1.429       .  S
N2841      O2845   1.262       .  A
N2841      O2846   1.262       .  A
N2844      O2848   1.262       .  A
N2844      O2847   1.261       .  A
C2849      C2850   1.408       .  A
C2849      C3878   1.413   1_545  A
C2849      H2856   1.082       .  S
C2850      C3875   1.403   1_545  A
C2851      C3874   1.402   1_554  A
C2851      C2852   1.388   1_554  A
C2851      N2858   1.429       .  S
C2852      C2853   1.408       .  A
C2852      H2857   1.084       .  S
C2853      C2854   1.409       .  A
C2854      C3873   1.414       .  A
C2854      N2855   1.427       .  S
N2855      O3883   1.262       .  A
N2855      O2860   1.262       .  A
N2858      O2862   1.262       .  A
N2858      O2861   1.262       .  A
O2859      N3879   1.262       .  A
C2863      C2864   1.397       .  A
C2863      C2868   1.402       .  A
C2863      H2870   1.084       .  S
C2864      C2865   1.411       .  A
C2865      C2866   1.399       .  A
C2865      N2872   1.423       .  S
C2866      C2867   1.394       .  A
C2866      H2871   1.084       .  S
C2867      C2868   1.412       .  A
C2868      N2869   1.425       .  S
N2869      O2873   1.261       .  A
N2869      O2874   1.262       .  A
N2872      O2876   1.262       .  A
N2872      O2875   1.262   1_554  A
C2877      C2878   1.406       .  A
C2877      C2882   1.402       .  A
C2877      H2884   1.084       .  S
C2878      C2879   1.411       .  A
C2879      C2880   1.408       .  A
C2879      N2886   1.428       .  S
C2880      C2881   1.409       .  A
C2880      H2885   1.084       .  S
C2881      C2882   1.414       .  A
C2882      N2883   1.429       .  S
N2883      O2887   1.262       .  A
N2883      O2888   1.262       .  A
N2886      O2890   1.262       .  A
N2886      O2889   1.262       .  A
C2891      C2892   1.395       .  A
C2891      C2896   1.399       .  A
C2891      H2898   1.085       .  S
C2892      C2893   1.409       .  A
C2893      C2894   1.401       .  A
C2893      N2900   1.429       .  S
C2894      C2895   1.408       .  A
C2894      H2899   1.084       .  S
C2895      C2896   1.418       .  A
C2896      N2897   1.426       .  S
N2897      O2901   1.261       .  A
N2897      O2902   1.262       .  A
N2900      O2904   1.262       .  A
N2900      O2903   1.262       .  A
C2905      C2906   1.408       .  A
C2905      C2910   1.409       .  A
C2905      H2912   1.084       .  S
C2906      C2907   1.418       .  A
C2907      C2908   1.412       .  A
C2907      N2914   1.430       .  S
C2908      C2909   1.409       .  A
C2908      H2913   1.084       .  S
C2909      C2910   1.418       .  A
C2910      N2911   1.429       .  S
N2911      O2915   1.262       .  A
N2911      O2916   1.262       .  A
N2914      O2918   1.262       .  A
N2914      O2917   1.262       .  A
C2919      C2920   1.405       .  A
C2919      C2924   1.405       .  A
C2919      H2926   1.084       .  S
C2920      C2921   1.412       .  A
C2921      C2922   1.403       .  A
C2921      N2928   1.424       .  S
C2922      C2923   1.403       .  A
C2922      H2927   1.084       .  S
C2923      C2924   1.414       .  A
C2924      N2925   1.428       .  S
N2925      O2929   1.262       .  A
N2925      O2930   1.262       .  A
N2928      O2932   1.261       .  A
N2928      O2931   1.262       .  A
C2933      C2934   1.400       .  A
C2933      H2940   1.080       .  S
C2934      C2935   1.423       .  A
C2935      N2942   1.431       .  S
C2936      C2937   1.395       .  A
C2936      H2941   1.084       .  S
C2937      C2938   1.409       .  A
C2938      N2939   1.426       .  S
N2939      O2943   1.262       .  A
N2939      O2944   1.262       .  A
N2942      O2946   1.262       .  A
N2942      O2945   1.262       .  A
C2947      C2948   1.400       .  A
C2947      C2952   1.404       .  A
C2947      H2954   1.084       .  S
C2948      C2949   1.417       .  A
C2949      C2950   1.392       .  A
C2949      N2956   1.428       .  S
C2950      C2951   1.392       .  A
C2950      H2955   1.084       .  S
C2951      C2952   1.412       .  A
C2952      N2953   1.429       .  S
N2953      O2957   1.262       .  A
N2953      O2958   1.262       .  A
N2956      O2960   1.262       .  A
N2956      O2959   1.261       .  A
C2961      C2962   1.404       .  A
C2961      C2966   1.407       .  A
C2961      H2968   1.084       .  S
C2962      C2963   1.412       .  A
C2963      C2964   1.385       .  A
C2963      N2970   1.431       .  S
C2964      C2965   1.399       .  A
C2964      H2969   1.081       .  S
C2965      C2966   1.409       .  A
C2966      N2967   1.422       .  S
N2967      O2971   1.262       .  A
N2967      O2972   1.261       .  A
N2970      O2974   1.261       .  A
N2970      O2973   1.262       .  A
C2975      C4000   1.411       .  A
C2975      C2980   1.415   1_565  A
C2975      H2982   1.085       .  S
C2976      C3999   1.410       .  A
C2976      C2977   1.417       .  A
C2977      C4002   1.391       .  A
C2977      N2984   1.430       .  S
C2978      C4001   1.379       .  A
C2978      C2979   1.398       .  A
C2978      H2983   1.085       .  S
C2979      C2980   1.412       .  A
C2980      N2981   1.428       .  S
N2981      O2985   1.262       .  A
N2981      O2986   1.261       .  A
N2984      O2988   1.262       .  A
N2984      O2987   1.262       .  A
C2989      C2990   1.407       .  A
C2989      C2994   1.401       .  A
C2989      H2996   1.084       .  S
C2990      C2991   1.416       .  A
C2991      C2992   1.409       .  A
C2991      N2998   1.428       .  S
C2992      C2993   1.403       .  A
C2992      H2997   1.084       .  S
C2993      C2994   1.408       .  A
C2994      N2995   1.429       .  S
N2995      O2999   1.262       .  A
N2995      O3000   1.262       .  A
N2998      O3002   1.262       .  A
N2998      O3001   1.262       .  A
C3003      C3004   1.410       .  A
C3003      C4032   1.411       .  A
C3003      H3010   1.083       .  S
C3004      C3005   1.419       .  A
C3005      N3012   1.429       .  S
C3006      C3007   1.407   1_455  A
C3006      H3011   1.084       .  S
C3008      C4027   1.412       .  A
N3009      O3014   1.261       .  A
N3012      O3016   1.262       .  A
N3012      O3015   1.262       .  A
C3017      C3018   1.399       .  A
C3017      C3022   1.391       .  A
C3017      H3024   1.081       .  S
C3018      C3019   1.411       .  A
C3019      C4044   1.416       .  A
C3019      N3026   1.429       .  S
C3020      C4043   1.421   1_545  A
C3020      C3021   1.414       .  A
C3020      H3025   1.083       .  S
C3021      C4046   1.410   1_545  A
C3022      C4045   1.414       .  A
C3022      N3023   1.430       .  S
N3023      O3027   1.262       .  A
N3023      O3028   1.262       .  A
N3026      O3030   1.262       .  A
N3026      O3029   1.261       .  A
C3031      C3032   1.410       .  A
C3031      C3036   1.414       .  A
C3031      H3038   1.083       .  S
C3032      C3033   1.412       .  A
C3033      C3034   1.388       .  A
C3033      N3040   1.429       .  S
C3034      C3035   1.397       .  A
C3034      H3039   1.084       .  S
C3035      C3036   1.410       .  A
C3036      N3037   1.430       .  S
N3037      O3041   1.262       .  A
N3037      O3042   1.261       .  A
N3040      O3044   1.261       .  A
N3040      O3043   1.262       .  A
C3045      C3046   1.410       .  A
C3045      C3050   1.401       .  A
C3045      H3052   1.083       .  S
C3046      C3047   1.409       .  A
C3047      N3054   1.428       .  S
C3048      C3049   1.402       .  A
C3048      H3053   1.084       .  S
C3050      N3051   1.429       .  S
N3051      O3055   1.261       .  A
N3054      O3058   1.262       .  A
N3054      O3057   1.262       .  A
C3059      C3060   1.398       .  A
C3059      C3064   1.405       .  A
C3059      H3066   1.084       .  S
C3060      C3061   1.411       .  A
C3061      C3062   1.397       .  A
C3061      N3068   1.423       .  S
C3062      C3063   1.396       .  A
C3062      H3067   1.084       .  S
C3063      C3064   1.421       .  A
C3064      N3065   1.430       .  S
N3065      O3069   1.262       .  A
N3065      O3070   1.262       .  A
N3068      O3072   1.262       .  A
N3068      O3071   1.262       .  A
O3073      C3088   1.256       .  A
O3073     Al3081   1.864       .  S
C3074      O3084   1.276       .  A
C3074      O3075   1.285       .  A
C3074      C4031   1.506       .  S
O3075     Al3077   1.973       .  S
O3076      C3078   1.255       .  A
O3076     Al3077   1.883       .  S
Al3077     O3085   1.922       .  S
Al3077     O3087   1.938       .  S
Al3077     O3086   1.781       .  S
C3078      O3091   1.256       .  A
C3078      C4045   1.492       .  S
O3079      C3089   1.257       .  A
O3079     Al3081   1.918       .  S
O3080      C3093   1.273       .  A
O3080     Al3090   1.925       .  S
Al3081     O3094   1.914       .  S
Al3081     O3091   1.912       .  S
Al3081     O3086   1.790       .  S
O3082      C3089   1.252       .  A
O3082     Al3090   1.890       .  S
O3083      C3092   1.244       .  A
O3083     Al3090   1.877       .  S
O3084     Al3090   1.900       .  S
O3085      C3092   1.250       .  A
O3086     Al3090   1.785       .  S
O3087      C3088   1.271       .  A
C3088      C4087   1.487       .  S
C3089      C4073   1.467       .  S
C3092      C4014   1.482       .  S
C3093      O3094   1.271       .  A
C3093      C4059   1.472       .  S
O3095      C3110   1.261       .  A
O3095     Al3103   1.877       .  S
C3096      O3106   1.270       .  A
C3096      O3097   1.270       .  A
C3096      C4028   1.501       .  S
O3097     Al3099   1.925       .  S
O3098      C3100   1.251       .  A
O3098     Al3099   1.875       .  S
Al3099     O3107   1.894       .  S
Al3099     O3109   1.924       .  S
Al3099     O3108   1.780       .  S
C3100      O3113   1.249       .  A
C3100      C4000   1.475       .  S
O3101      C3111   1.263       .  A
O3101     Al3103   1.899       .  S
O3102      C3115   1.269       .  A
O3102     Al3112   1.956       .  S
Al3103     O3116   1.865       .  S
Al3103     O3113   1.899       .  S
Al3103     O3108   1.791       .  S
O3104      C3111   1.265       .  A
O3104     Al3112   1.917       .  S
O3105      C3114   1.256       .  A
O3105     Al3112   1.911       .  S
O3106     Al3112   1.921       .  S
O3107      C3114   1.253       .  A
O3108     Al3112   1.789       .  S
O3109      C3110   1.271       .  A
C3110      C3972   1.467       .  S
C3111      C3961   1.459       .  S
C3114      C3944   1.492       .  S
C3115      O3116   1.256       .  A
C3115      C3989   1.487       .  S
O3117      C3132   1.260       .  A
O3117     Al3125   1.877       .  S
C3118      O3128   1.265       .  A
C3118      O3119   1.269       .  A
C3118      C3930   1.499       .  S
O3119     Al3121   1.939       .  S
O3120      C3122   1.252       .  A
O3120     Al3121   1.864       .  S
Al3121     O3129   1.865       .  S
Al3121     O3131   1.938       .  S
Al3121     O3130   1.769       .  S
C3122      O3135   1.262       .  A
C3122      C3986   1.475       .  S
O3123      C3133   1.265       .  A
O3123     Al3125   1.907       .  S
O3124      C3137   1.264       .  A
O3124     Al3134   1.928       .  S
Al3125     O3138   1.902       .  S
Al3125     O3135   1.937       .  S
Al3125     O3130   1.784       .  S
O3126      C3133   1.269       .  A
O3126     Al3134   1.925       .  S
O3127      C3136   1.263       .  A
O3127     Al3134   1.924       .  S
O3128     Al3134   1.913       .  S
O3129      C3136   1.250       .  A
O3130     Al3134   1.778       .  S
O3131      C3132   1.268       .  A
C3132      C4070   1.479       .  S
C3133      C4084   1.470       .  S
C3136      C3916   1.472       .  S
C3137      O3138   1.263       .  A
C3137      C4003   1.472       .  S
O3139      C3154   1.255       .  A
O3139     Al3147   1.852       .  S
C3140      O3150   1.270       .  A
C3140      O3141   1.281       .  A
C3140      C3933   1.513       .  S
O3141     Al3143   1.966       .  S
O3142      C3144   1.250       .  A
O3142     Al3143   1.876       .  S
Al3143     O3151   1.878       .  S
Al3143     O3153   1.952       .  S
Al3143     O3152   1.772       .  S
C3144      O3157   1.253       .  A
C3144      C4056   1.482       .  S
O3145      C3155   1.262       .  A
O3145     Al3147   1.901       .  S
O3146      C3159   1.275       .  A
O3146     Al3156   1.965       .  S
Al3147     O3160   1.891       .  S
Al3147     O3157   1.916       .  S
Al3147     O3152   1.784       .  S
O3148      C3155   1.265       .  A
O3148     Al3156   1.927       .  S
O3149      C3158   1.256       .  A
O3149     Al3156   1.932       .  S
O3150     Al3156   1.906       .  S
O3151      C3158   1.247       .  A
O3152     Al3156   1.792       .  S
O3153      C3154   1.276       .  A
C3154      C3958   1.482       .  S
C3155      C3975   1.465       .  S
C3158      C3902   1.487       .  S
C3159      O3160   1.265       .  A
C3159      C4042   1.498       .  S
O3161      C3176   1.263       .  A
O3161     Al3169   1.901       .  S
C3162      O3172   1.274       .  A
C3162      O3163   1.265       .  A
C3162      C3832   1.505       .  S
O3163     Al3165   1.901       .  S
O3164      C3166   1.267       .  A
O3164     Al3165   1.919       .  S
Al3165     O3173   1.925       .  S
Al3165     O3175   1.934       .  S
Al3165     O3174   1.780       .  S
C3166      O3179   1.266   1_554  A
C3166      C3874   1.474   1_554  S
O3167      C3177   1.260       .  A
O3167     Al3169   1.927       .  S
O3168      C3181   1.272       .  A
O3168     Al3178   1.947       .  S
Al3169     O3182   1.873       .  S
Al3169     O3179   1.914   1_554  S
Al3169     O3174   1.787       .  S
O3170      C3177   1.247       .  A
O3170     Al3178   1.847       .  S
O3171      C3180   1.249       .  A
O3171     Al3178   1.875       .  S
O3172     Al3178   1.959       .  S
O3173      C3180   1.261       .  A
O3174     Al3178   1.777       .  S
O3175      C3176   1.267       .  A
C3176      C3860   1.480       .  S
C3177      C3849   1.472       .  S
C3180      C3818   1.481       .  S
C3181      O3182   1.259       .  A
C3181      C3891   1.480       .  S
O3183      C3198   1.256       .  A
O3183     Al3191   1.861       .  S
C3184      O3194   1.277       .  A
C3184      O3185   1.286       .  A
C3184      C3835   1.512       .  S
O3185     Al3187   1.964       .  S
O3186      C3188   1.254       .  A
O3186     Al3187   1.893       .  S
Al3187     O3195   1.927       .  S
Al3187     O3197   1.964       .  S
Al3187     O3196   1.799       .  S
C3188      O3201   1.251       .  A
C3188      C3807   1.472   1_554  S
O3189      C3199   1.245       .  A
O3189     Al3191   1.895       .  S
O3190      C3203   1.270       .  A
O3190     Al3200   1.908       .  S
Al3191     O3204   1.904       .  S
Al3191     O3201   1.882       .  S
Al3191     O3196   1.787       .  S
O3192      C3199   1.246       .  A
O3192     Al3200   1.882       .  S
O3193      C3202   1.241       .  A
O3193     Al3200   1.856       .  S
O3194     Al3200   1.919       .  S
O3195      C3202   1.251       .  A
O3196     Al3200   1.789       .  S
O3197      C3198   1.275       .  A
C3198      C3762   1.497       .  S
C3199      C3776   1.470   1_554  S
C3202      C3751   1.490       .  S
C3203      O3204   1.268       .  A
C3203      C3793   1.472       .  S
O3205      C3220   1.259       .  A
O3205     Al3213   1.884       .  S
C3206      O3216   1.272       .  A
C3206      O3207   1.274       .  A
C3206      C3737   1.509       .  S
O3207     Al3209   1.943       .  S
O3208      C3210   1.255       .  A
O3208     Al3209   1.894       .  S
Al3209     O3217   1.903       .  S
Al3209     O3219   1.932       .  S
Al3209     O3218   1.786       .  S
C3210      O3223   1.258   1_556  A
C3210      C3888   1.480   1_556  S
O3211      C3221   1.270   1_554  A
O3211     Al3213   1.946   1_554  S
O3212      C3225   1.270       .  A
O3212     Al3222   1.946       .  S
Al3213     O3226   1.892       .  S
Al3213     O3223   1.921   1_556  S
Al3213     O3218   1.796       .  S
O3214      C3221   1.264       .  A
O3214     Al3222   1.895       .  S
O3215      C3224   1.254       .  A
O3215     Al3222   1.911       .  S
O3216     Al3222   1.919       .  S
O3217      C3224   1.254       .  A
O3218     Al3222   1.786       .  S
O3219      C3220   1.267       .  A
C3220      C3779   1.475       .  S
C3221      C3765   1.503   1_556  S
C3224      C3905   1.496       .  S
C3225      O3226   1.262       .  A
C3225      C3877   1.483       .  S
O3227      C3242   1.256       .  A
O3227     Al3235   1.858       .  S
C3228      O3238   1.271       .  A
C3228      O3229   1.278       .  A
C3228      C3734   1.515       .  S
O3229     Al3231   1.965       .  S
O3230      C3232   1.255       .  A
O3230     Al3231   1.879       .  S
Al3231     O3239   1.907       .  S
Al3231     O3241   1.938       .  S
Al3231     O3240   1.789       .  S
C3232      O3245   1.253   1_556  A
C3232      C3790   1.465   1_556  S
O3233      C3243   1.262   1_554  A
O3233     Al3235   1.922   1_554  S
O3234      C3247   1.272       .  A
O3234     Al3244   1.937       .  S
Al3235     O3248   1.881       .  S
Al3235     O3245   1.895   1_556  S
Al3235     O3240   1.796       .  S
O3236      C3243   1.255       .  A
O3236     Al3244   1.873       .  S
O3237      C3246   1.251       .  A
O3237     Al3244   1.889       .  S
O3238     Al3244   1.911       .  S
O3239      C3246   1.252       .  A
O3240     Al3244   1.789       .  S
O3241      C3242   1.267       .  A
C3242      C3846   1.472       .  S
C3243      C3863   1.484   1_556  S
C3246      C3919   1.485       .  S
C3247      O3248   1.261       .  A
C3247      C3804   1.467       .  S
O3249      C3264   1.260       .  A
O3249     Al3257   1.878       .  S
C3250      O3260   1.279       .  A
C3250      O3251   1.280       .  A
C3250      C3667   1.501       .  S
O3251     Al3253   1.946       .  S
O3252      C3254   1.254       .  A
O3252     Al3253   1.867       .  S
Al3253     O3261   1.911       .  S
Al3253     O3263   1.922       .  S
Al3253     O3262   1.787       .  S
C3254      O3267   1.253       .  A
C3254      C3720   1.481       .  S
O3255      C3265   1.254       .  A
O3255     Al3257   1.916       .  S
O3256      C3269   1.274       .  A
O3256     Al3266   1.925       .  S
Al3257     O3270   1.904       .  S
Al3257     O3267   1.903       .  S
Al3257     O3262   1.792       .  S
O3258      C3265   1.251       .  A
O3258     Al3266   1.899       .  S
O3259      C3268   1.247       .  A
O3259     Al3266   1.878       .  S
O3260     Al3266   1.908       .  S
O3261      C3268   1.248       .  A
O3262     Al3266   1.785       .  S
O3263      C3264   1.265       .  A
C3264      C3695   1.468       .  S
C3265      C3681   1.480   1_655  S
C3268      C4017   1.496       .  S
C3269      O3270   1.271       .  A
C3269      C3709   1.475       .  S
O3271      C3286   1.258       .  A
O3271     Al3279   1.859       .  S
C3272      O3282   1.263       .  A
C3272      O3273   1.271       .  A
C3272      C3625   1.498       .  S
O3273     Al3275   1.936       .  S
O3274      C3276   1.255       .  A
O3274     Al3275   1.891       .  S
Al3275     O3283   1.900       .  S
Al3275     O3285   1.940       .  S
Al3275     O3284   1.784       .  S
C3276      O3289   1.252       .  A
C3276      C3706   1.470       .  S
O3277      C3287   1.264       .  A
O3277     Al3279   1.922       .  S
O3278      C3291   1.267       .  A
O3278     Al3288   1.937       .  S
Al3279     O3292   1.878       .  S
Al3279     O3289   1.891       .  S
Al3279     O3284   1.794       .  S
O3280      C3287   1.264       .  A
O3280     Al3288   1.884       .  S
O3281      C3290   1.256       .  A
O3281     Al3288   1.905       .  S
O3282     Al3288   1.896       .  S
O3283      C3290   1.254       .  A
O3284     Al3288   1.783       .  S
O3285      C3286   1.269       .  A
C3286      C3650   1.479       .  S
C3287      C3636   1.481       .  S
C3290      C3608   1.488       .  S
C3291      O3292   1.257       .  A
C3291      C3723   1.472       .  S
O3293      C3308   1.259       .  A
O3293     Al3301   1.874       .  S
C3294      O3304   1.266       .  A
C3294      O3295   1.269       .  A
C3294      C3622   1.490       .  S
O3295     Al3297   1.927       .  S
O3296      C3298   1.255       .  A
O3296     Al3297   1.895       .  S
Al3297     O3305   1.908       .  S
Al3297     O3307   1.926       .  S
Al3297     O3306   1.784       .  S
C3298      O3311   1.253       .  A
C3298      C3594   1.468       .  S
O3299      C3309   1.266       .  A
O3299     Al3301   1.931       .  S
O3300      C3313   1.271       .  A
O3300     Al3310   1.951       .  S
Al3301     O3314   1.879       .  S
Al3301     O3311   1.903       .  S
Al3301     O3306   1.791       .  S
O3302      C3309   1.263       .  A
O3302     Al3310   1.891       .  S
O3303      C3312   1.256       .  A
O3303     Al3310   1.911       .  S
O3304     Al3310   1.901       .  S
O3305      C3312   1.257       .  A
O3306     Al3310   1.786       .  S
O3307      C3308   1.267       .  A
C3308      C3678   1.469       .  S
C3309      C3692   1.488       .  S
C3312      C3569   1.487       .  S
C3313      O3314   1.259       .  A
C3313      C3580   1.480       .  S
O3315      C3330   1.265       .  A
O3315     Al3323   1.892       .  S
C3316      O3326   1.278       .  A
C3316      O3317   1.264       .  A
C3316      C3664   1.500       .  S
O3317     Al3319   1.880       .  S
O3318      C3320   1.263       .  A
O3318     Al3319   1.904       .  S
Al3319     O3327   1.920       .  S
Al3319     O3329   1.926       .  S
Al3319     O3328   1.784       .  S
C3320      O3333   1.262       .  A
C3320      C3583   1.493       .  S
O3321      C3331   1.256       .  A
O3321     Al3323   1.905       .  S
O3322      C3335   1.270       .  A
O3322     Al3332   1.953       .  S
Al3323     O3336   1.855       .  S
Al3323     O3333   1.927       .  S
Al3323     O3328   1.787       .  S
O3324      C3331   1.253       .  A
O3324     Al3332   1.873       .  S
O3325      C3334   1.252       .  A
O3325     Al3332   1.902       .  S
O3326     Al3332   1.963       .  S
O3327      C3334   1.256       .  A
O3328     Al3332   1.779       .  S
O3329      C3330   1.270       .  A
C3330      C3639   1.467       .  S
C3331      C3653   1.469       .  S
C3334      C3947   1.479       .  S
C3335      O3336   1.255       .  A
C3335      C3597   1.483       .  S
O3337      C3352   1.258       .  A
O3337     Al3345   1.868       .  S
C3338      O3348   1.275       .  A
C3338      O3339   1.287       .  A
C3338      C3496   1.511       .  S
O3339     Al3341   1.977       .  S
O3340      C3342   1.245       .  A
O3340     Al3341   1.838       .  S
Al3341     O3349   1.885       .  S
Al3341     O3351   1.944       .  S
Al3341     O3350   1.776       .  S
C3342      O3355   1.259       .  A
C3342      C3538   1.482       .  S
O3343      C3353   1.256       .  A
O3343     Al3345   1.925       .  S
O3344      C3357   1.278       .  A
O3344     Al3354   1.932       .  S
Al3345     O3358   1.914       .  S
Al3345     O3355   1.922       .  S
Al3345     O3350   1.793       .  S
O3346      C3353   1.252       .  A
O3346     Al3354   1.880       .  S
O3347      C3356   1.249       .  A
O3347     Al3354   1.913       .  S
O3348     Al3354   1.915       .  S
O3349      C3356   1.243       .  A
O3350     Al3354   1.787       .  S
O3351      C3352   1.268       .  A
C3352      C3524   1.484       .  S
C3353      C3510   1.492   1_655  S
C3356      C3611   1.487       .  S
C3357      O3358   1.272       .  A
C3357      C3555   1.472       .  S
O3359      C3374   1.265       .  A
O3359     Al3367   1.912       .  S
C3360      O3370   1.276       .  A
C3360      O3361   1.266       .  A
C3360      C3454   1.496       .  S
O3361     Al3363   1.909       .  S
O3362      C3364   1.269       .  A
O3362     Al3363   1.938       .  S
Al3363     O3371   1.938       .  S
Al3363     O3373   1.934       .  S
Al3363     O3372   1.787       .  S
C3364      O3377   1.261       .  A
C3364      C3471   1.476       .  S
O3365      C3375   1.261       .  A
O3365     Al3367   1.932       .  S
O3366      C3379   1.270       .  A
O3366     Al3376   1.954       .  S
Al3367     O3380   1.857       .  S
Al3367     O3377   1.900       .  S
Al3367     O3372   1.788       .  S
O3368      C3375   1.253       .  A
O3368     Al3376   1.874       .  S
O3369      C3378   1.252       .  A
O3369     Al3376   1.891       .  S
O3370     Al3376   1.953       .  S
O3371      C3378   1.262       .  A
O3372     Al3376   1.775       .  S
O3373      C3374   1.268       .  A
C3374      C3513   1.478       .  S
C3375      C3527   1.487       .  S
C3378      C3748   1.486       .  S
C3379      O3380   1.256       .  A
C3379      C3482   1.484       .  S
O3381      C3396   1.258       .  A
O3381     Al3389   1.876       .  S
C3382      O3392   1.272       .  A
C3382      O3383   1.275       .  A
C3382      C3499   1.504       .  S
O3383     Al3385   1.940       .  S
O3384      C3386   1.254       .  A
O3384     Al3385   1.884       .  S
Al3385     O3393   1.900       .  S
Al3385     O3395   1.935       .  S
Al3385     O3394   1.776       .  S
C3386      O3399   1.253       .  A
C3386      C3485   1.470       .  S
O3387      C3397   1.263       .  A
O3387     Al3389   1.919       .  S
O3388      C3401   1.274       .  A
O3388     Al3398   1.946       .  S
Al3389     O3402   1.892       .  S
Al3389     O3399   1.898       .  S
Al3389     O3394   1.786       .  S
O3390      C3397   1.262       .  A
O3390     Al3398   1.916       .  S
O3391      C3400   1.255       .  A
O3391     Al3398   1.920       .  S
O3392     Al3398   1.916       .  S
O3393      C3400   1.254       .  A
O3394     Al3398   1.785       .  S
O3395      C3396   1.268       .  A
C3396      C3443   1.468       .  S
C3397      C3426   1.481       .  S
C3400      C3566   1.497       .  S
C3401      O3402   1.263       .  A
C3401      C3468   1.480       .  S
O3403      C3418   1.269       .  A
O3403     Al3411   1.923       .  S
C3404      O3414   1.282       .  A
C3404      O3405   1.264       .  A
C3404      C3457   1.507       .  S
O3405     Al3407   1.878       .  S
O3406      C3408   1.266       .  A
O3406     Al3407   1.919       .  S
Al3407     O3415   1.927       .  S
Al3407     O3417   1.922       .  S
Al3407     O3416   1.782       .  S
C3408      O3421   1.262       .  A
C3408      C3552   1.483       .  S
O3409      C3419   1.259       .  A
O3409     Al3411   1.927       .  S
O3410      C3423   1.273       .  A
O3410     Al3420   1.963       .  S
Al3411     O3424   1.847       .  S
Al3411     O3421   1.918       .  S
Al3411     O3416   1.783       .  S
O3412      C3419   1.250       .  A
O3412     Al3420   1.867       .  S
O3413      C3422   1.250       .  A
O3413     Al3420   1.895       .  S
O3414     Al3420   1.977       .  S
O3415      C3422   1.259       .  A
O3416     Al3420   1.776       .  S
O3417      C3418   1.270       .  A
C3418      C3429   1.472       .  S
C3419      C3440   1.478       .  S
C3422      C3821   1.495       .  S
C3423      O3424   1.256       .  A
C3423      C3541   1.480       .  S
C3425      C3426   1.405       .  A
C3425      H3432   1.084       .  S
C3426      C3427   1.415       .  A
C3427      N3434   1.429       .  S
C3428      C3429   1.396       .  A
C3428      H3433   1.084       .  S
C3429      C3430   1.408       .  A
C3430      N3431   1.426       .  S
N3431      O3435   1.262       .  A
N3431      O3436   1.261       .  A
N3434      O3438   1.262       .  A
N3434      O3437   1.262       .  A
C3439      C3440   1.403       .  A
C3439      C3444   1.409       .  A
C3439      H3446   1.084       .  S
C3440      C3441   1.415       .  A
C3441      C3442   1.394       .  A
C3441      N3448   1.430       .  S
C3442      C3443   1.395       .  A
C3442      H3447   1.085       .  S
C3443      C3444   1.412       .  A
C3444      N3445   1.428       .  S
N3445      O3449   1.262       .  A
N3445      O3450   1.261       .  A
N3448      O3452   1.262       .  A
N3448      O3451   1.262       .  A
C3453      C3454   1.400       .  A
C3453      C3458   1.402       .  A
C3453      H3460   1.084       .  S
C3454      C3455   1.416       .  A
C3455      C3456   1.414       .  A
C3455      N3462   1.430       .  S
C3456      C3457   1.409       .  A
C3456      H3461   1.083       .  S
C3457      C3458   1.423       .  A
C3458      N3459   1.429       .  S
N3459      O3463   1.262       .  A
N3459      O3464   1.261       .  A
N3462      O3466   1.261       .  A
N3462      O3465   1.262       .  A
C3467      C3468   1.406       .  A
C3467      C3472   1.391       .  A
C3467      H3474   1.083       .  S
C3468      C3469   1.406       .  A
C3469      C3470   1.412       .  A
C3469      N3476   1.428       .  S
C3470      C3471   1.410       .  A
C3470      H3475   1.082       .  S
C3471      C3472   1.401       .  A
C3472      N3473   1.427       .  S
N3473      O3477   1.262       .  A
N3473      O3478   1.260       .  A
N3476      O3480   1.262       .  A
N3476      O3479   1.262       .  A
C3481      C3482   1.409       .  A
C3481      C3486   1.397       .  A
C3481      H3488   1.084       .  S
C3482      C3483   1.412       .  A
C3483      N3490   1.427       .  S
C3484      C3485   1.405       .  A
C3484      H3489   1.084       .  S
N3487      O3492   1.261       .  A
N3490      O3494   1.262       .  A
N3490      O3493   1.262       .  A
C3495      C3500   1.409       .  A
C3495      H3502   1.080       .  S
C3497      C3498   1.409       .  A
C3497      N3504   1.429       .  S
C3498      H3503   1.083       .  S
C3500      N3501   1.429       .  S
N3501      O3505   1.262       .  A
N3504      O3508   1.262       .  A
N3504      O3507   1.262       .  A
C3509      C3514   1.389       .  A
C3509      H3516   1.084       .  S
C3510      C3511   1.415       .  A
C3511      N3518   1.428       .  S
C3512      C3513   1.412       .  A
C3512      H3517   1.083       .  S
C3513      C3514   1.403       .  A
C3514      N3515   1.429       .  S
N3515      O3519   1.261       .  A
N3515      O3520   1.262       .  A
N3518      O3522   1.262   1_455  A
N3518      O3521   1.262       .  A
C3523      C3524   1.401       .  A
C3523      C3528   1.391       .  A
C3523      H3530   1.085       .  S
C3524      C3525   1.411       .  A
C3525      C3526   1.412       .  A
C3525      N3532   1.425       .  S
C3526      C3527   1.408       .  A
C3526      H3531   1.083       .  S
C3527      C3528   1.414       .  A
C3528      N3529   1.430       .  S
N3529      O3533   1.261       .  A
N3529      O3534   1.262       .  A
N3532      O3536   1.262       .  A
N3532      O3535   1.261       .  A
C3537      C3542   1.412       .  A
C3539      C3540   1.389       .  A
C3540      C3541   1.396       .  A
C3540      H3545   1.085       .  S
C3541      C3542   1.405       .  A
C3542      N3543   1.421       .  S
N3543      O3547   1.260       .  A
N3543      O3548   1.261       .  A
N3546      O3550   1.262       .  A
N3546      O3549   1.262       .  A
C3551      C3552   1.402       .  A
C3551      C3556   1.391       .  A
C3551      H3558   1.084       .  S
C3552      C3553   1.413       .  A
C3553      C3554   1.412       .  A
C3553      N3560   1.428       .  S
C3554      C3555   1.407       .  A
C3554      H3559   1.084       .  S
C3555      C3556   1.405       .  A
C3556      N3557   1.428       .  S
N3557      O3561   1.262       .  A
N3557      O3562   1.262       .  A
N3560      O3564   1.262       .  A
N3560      O3563   1.262       .  A
C3565      C3566   1.407       .  A
C3565      C3570   1.403       .  A
C3565      H3572   1.084       .  S
C3566      C3567   1.418       .  A
C3567      C3568   1.406       .  A
C3567      N3574   1.428       .  S
C3568      C3569   1.402       .  A
C3568      H3573   1.084       .  S
C3569      C3570   1.413       .  A
C3570      N3571   1.430       .  S
N3571      O3575   1.262       .  A
N3571      O3576   1.262       .  A
N3574      O3578   1.262       .  A
N3574      O3577   1.262       .  A
C3579      C3580   1.407       .  A
C3579      C3584   1.417       .  A
C3579      H3586   1.082       .  S
C3580      C3581   1.408       .  A
C3581      C3582   1.386       .  A
C3581      N3588   1.430       .  S
C3582      C3583   1.402       .  A
C3582      H3587   1.083       .  S
C3583      C3584   1.417       .  A
C3584      N3585   1.428       .  S
N3585      O3589   1.262       .  A
N3585      O3590   1.262       .  A
N3588      O3592   1.262       .  A
N3588      O3591   1.261       .  A
C3593      C3598   1.408   1_545  A
C3593      H3600   1.084       .  S
C3594      C3595   1.401       .  A
C3595      N3602   1.428       .  S
C3596      C3597   1.409       .  A
C3596      H3601   1.085       .  S
C3597      C3598   1.411       .  A
C3598      N3599   1.429       .  S
N3599      O3603   1.262       .  A
N3599      O3604   1.262       .  A
N3602      O3606   1.261       .  A
N3602      O3605   1.261       .  A
C3607      C3608   1.404       .  A
C3607      C3612   1.401       .  A
C3607      H3614   1.084       .  S
C3608      C3609   1.414       .  A
C3609      C3610   1.405       .  A
C3609      N3616   1.428       .  S
C3610      C3611   1.405       .  A
C3610      H3615   1.084       .  S
C3611      C3612   1.412       .  A
C3612      N3613   1.427       .  S
N3613      O3617   1.261       .  A
N3613      O3618   1.262       .  A
N3616      O3620   1.262       .  A
N3616      O3619   1.262       .  A
C3621      C3626   1.404       .  A
C3621      H3628   1.084       .  S
C3622      C3623   1.412       .  A
C3623      C3624   1.402       .  A
C3623      N3630   1.429       .  S
C3624      H3629   1.083       .  S
C3625      C3626   1.418       .  A
C3626      N3627   1.430       .  S
N3627      O3631   1.262       .  A
N3627      O3632   1.262       .  A
N3630      O3634   1.262       .  A
N3630      O3633   1.262       .  A
C3635      C3636   1.400       .  A
C3635      C3640   1.379       .  A
C3635      H3642   1.084       .  S
C3636      C3637   1.413       .  A
C3637      C3638   1.414       .  A
C3637      N3644   1.427       .  S
C3638      C3639   1.408       .  A
C3638      H3643   1.083       .  S
C3639      C3640   1.405       .  A
C3640      N3641   1.429       .  S
N3641      O3645   1.262       .  A
N3641      O3646   1.261       .  A
N3644      O3648   1.262       .  A
N3644      O3647   1.261       .  A
C3649      C3650   1.408       .  A
C3649      H3656   1.085       .  S
C3650      C3651   1.411       .  A
C3651      C3652   1.404   1_655  A
C3651      N3658   1.428       .  S
C3652      H3657   1.084       .  S
C3653      C3654   1.404       .  A
C3654      N3655   1.429       .  S
N3655      O3659   1.261       .  A
N3655      O3660   1.262       .  A
N3658      O3662   1.262       .  A
N3658      O3661   1.262       .  A
C3663      C3664   1.407       .  A
C3663      H3670   1.083       .  S
C3664      C3665   1.419       .  A
C3665      C3666   1.399       .  A
C3665      N3672   1.430       .  S
C3667      C3668   1.419       .  A
C3668      N3669   1.428       .  S
N3669      O3673   1.262       .  A
N3669      O3674   1.262       .  A
N3672      O3676   1.262       .  A
N3672      O3675   1.262       .  A
C3677      C3678   1.397       .  A
C3677      H3684   1.084       .  S
C3678      C3679   1.411       .  A
C3679      C3680   1.401       .  A
C3679      N3686   1.428       .  S
C3680      H3685   1.084       .  S
C3681      C3682   1.415       .  A
C3682      N3683   1.427       .  S
N3683      O3687   1.261       .  A
N3683      O3688   1.262   1_455  A
N3686      O3690   1.261       .  A
N3686      O3689   1.262       .  A
C3691      C3692   1.406       .  A
C3691      C3696   1.385       .  A
C3691      H3698   1.084       .  S
C3692      C3693   1.415       .  A
C3693      C3694   1.414       .  A
C3693      N3700   1.427       .  S
C3694      C3695   1.406       .  A
C3694      H3699   1.083       .  S
C3695      C3696   1.402       .  A
C3696      N3697   1.430       .  S
N3697      O3701   1.262       .  A
N3697      O3702   1.261       .  A
N3700      O3704   1.262       .  A
N3700      O3703   1.261       .  A
C3705      C3706   1.406       .  A
C3705      H3712   1.084       .  S
C3707      C3708   1.392       .  A
C3708      C3709   1.406       .  A
C3708      H3713   1.085       .  S
C3709      C3710   1.408       .  A
C3710      N3711   1.428       .  S
N3711      O3715   1.261       .  A
N3711      O3716   1.262       .  A
N3714      O3717   1.262       .  A
C3719      C3720   1.400       .  A
C3719      C3724   1.384       .  A
C3719      H3726   1.085       .  S
C3720      C3721   1.414       .  A
C3721      C3722   1.412       .  A
C3721      N3728   1.427       .  S
C3722      C3723   1.406       .  A
C3722      H3727   1.084       .  S
C3723      C3724   1.410       .  A
C3724      N3725   1.430       .  S
N3725      O3729   1.261       .  A
N3725      O3730   1.262       .  A
N3728      O3732   1.261       .  A
N3728      O3731   1.262       .  A
C3733      C3738   1.408       .  A
C3733      H3740   1.084       .  S
C3734      C3735   1.419       .  A
C3735      C3736   1.414       .  A
C3735      N3742   1.428       .  S
C3736      H3741   1.083       .  S
C3737      C3738   1.418       .  A
C3738      N3739   1.429       .  S
N3739      O3743   1.262       .  A
N3739      O3744   1.262       .  A
N3742      O3746   1.261       .  A
N3742      O3745   1.262       .  A
C3747      C3748   1.408       .  A
C3747      C3752   1.409       .  A
C3747      H3754   1.084       .  S
C3748      C3749   1.409       .  A
C3749      C3750   1.401       .  A
C3749      N3756   1.429       .  S
C3750      C3751   1.408       .  A
C3750      H3755   1.084       .  S
C3751      C3752   1.411       .  A
C3752      N3753   1.428       .  S
N3753      O3757   1.262       .  A
N3753      O3758   1.262       .  A
N3756      O3760   1.262       .  A
N3756      O3759   1.262       .  A
C3761      C3762   1.410       .  A
C3761      C3766   1.421       .  A
C3761      H3768   1.083       .  S
C3762      C3763   1.420   1_554  A
C3763      C3764   1.388       .  A
C3763      N3770   1.435       .  S
C3764      H3769   1.084       .  S
N3767      O3771   1.262       .  A
N3767      O3772   1.262       .  A
N3770      O3774   1.262       .  A
N3770      O3773   1.261       .  A
C3775      C3776   1.400       .  A
C3775      C3780   1.410       .  A
C3775      H3782   1.083       .  S
C3776      C3777   1.407       .  A
C3777      C3778   1.395       .  A
C3777      N3784   1.431   1_556  S
C3778      C3779   1.395       .  A
C3778      H3783   1.071       .  S
C3779      C3780   1.418       .  A
C3780      N3781   1.442       .  S
N3781      O3785   1.263       .  A
N3781      O3786   1.263       .  A
N3784      O3788   1.262       .  A
N3784      O3787   1.262   1_554  A
C3789      C3790   1.392       .  A
C3789      C3794   1.393       .  A
C3789      H3796   1.084   1_554  S
C3790      C3791   1.411       .  A
C3791      C3792   1.400       .  A
C3791      N3798   1.425       .  S
C3792      C3793   1.398       .  A
C3792      H3797   1.084       .  S
C3793      C3794   1.413       .  A
C3794      N3795   1.423       .  S
N3795      O3799   1.261   1_554  A
N3795      O3800   1.261       .  A
N3798      O3802   1.262       .  A
N3798      O3801   1.262       .  A
C3803      C3804   1.402       .  A
C3803      H3810   1.085       .  S
C3804      C3805   1.407       .  A
C3805      C3806   1.404       .  A
C3805      N3812   1.426       .  S
C3807      C3808   1.413   1_566  A
C3808      N3809   1.432   1_545  S
N3809      O3813   1.262   1_565  A
N3809      O3814   1.261       .  A
N3812      O3816   1.262       .  A
N3812      O3815   1.261       .  A
C3817      C3818   1.396       .  A
C3817      C3822   1.400       .  A
C3817      H3824   1.084       .  S
C3818      C3819   1.412       .  A
C3819      C3820   1.403       .  A
C3819      N3826   1.429       .  S
C3820      C3821   1.407       .  A
C3820      H3825   1.084       .  S
C3821      C3822   1.420       .  A
C3822      N3823   1.425       .  S
N3823      O3827   1.262       .  A
N3823      O3828   1.262       .  A
N3826      O3830   1.262       .  A
N3826      O3829   1.262       .  A
C3831      C3836   1.409       .  A
C3831      H3838   1.083       .  S
C3832      C3833   1.416       .  A
C3833      C3834   1.409       .  A
C3833      N3840   1.425       .  S
C3834      H3839   1.084       .  S
C3835      C3836   1.420       .  A
C3836      N3837   1.429       .  S
N3837      O3841   1.262       .  A
N3837      O3842   1.262       .  A
N3840      O3844   1.261       .  A
N3840      O3843   1.262       .  A
C3845      C3846   1.397   1_554  A
C3845      C3850   1.387       .  A
C3845      H3852   1.082       .  S
C3846      C3847   1.409       .  A
C3847      C3848   1.403       .  A
C3847      N3854   1.418       .  S
C3848      C3849   1.398   1_556  A
C3848      H3853   1.084       .  S
C3849      C3850   1.413       .  A
C3850      N3851   1.432       .  S
N3851      O3855   1.262       .  A
N3851      O3856   1.261       .  A
N3854      O3858   1.260       .  A
N3854      O3857   1.261       .  A
C3859      C3860   1.407       .  A
C3859      H3866   1.083       .  S
C3860      C3861   1.407   1_554  A
C3861      C3862   1.389       .  A
C3861      N3868   1.430       .  S
C3862      H3867   1.084       .  S
C3863      C3864   1.411       .  A
C3864      N3865   1.429       .  S
N3865      O3869   1.262       .  A
N3865      O3870   1.261       .  A
N3868      O3872   1.262       .  A
N3868      O3871   1.262       .  A
C3873      C3874   1.409       .  A
C3873      H3880   1.082       .  S
C3875      C3876   1.389       .  A
C3875      N3882   1.428   1_556  S
C3876      C3877   1.405       .  A
C3876      H3881   1.084       .  S
C3877      C3878   1.410       .  A
C3878      N3879   1.427       .  S
N3879      O3884   1.262       .  A
N3882      O3886   1.261       .  A
N3882      O3885   1.262       .  A
C3887      C3888   1.401       .  A
C3887      C3892   1.404       .  A
C3887      H3894   1.084       .  S
C3888      C3889   1.415       .  A
C3889      C3890   1.402       .  A
C3889      N3896   1.425       .  S
C3890      C3891   1.394       .  A
C3890      H3895   1.084       .  S
C3891      C3892   1.413       .  A
C3892      N3893   1.428       .  S
N3893      O3897   1.262       .  A
N3893      O3898   1.262       .  A
N3896      O3900   1.262       .  A
N3896      O3899   1.262       .  A
C3901      C3902   1.404       .  A
C3901      C3906   1.404       .  A
C3901      H3908   1.084       .  S
C3902      C3903   1.411       .  A
C3903      C3904   1.406       .  A
C3903      N3910   1.428       .  S
C3904      C3905   1.408       .  A
C3904      H3909   1.084       .  S
C3905      C3906   1.416       .  A
C3906      N3907   1.429       .  S
N3907      O3911   1.262       .  A
N3907      O3912   1.262       .  A
N3910      O3914   1.262       .  A
N3910      O3913   1.262       .  A
C3915      C3916   1.395       .  A
C3915      C3920   1.396       .  A
C3915      H3922   1.084       .  S
C3916      C3917   1.412       .  A
C3917      C3918   1.399       .  A
C3917      N3924   1.429       .  S
C3918      C3919   1.405       .  A
C3918      H3923   1.084       .  S
C3919      C3920   1.411       .  A
C3920      N3921   1.419       .  S
N3921      O3925   1.261       .  A
N3921      O3926   1.261       .  A
N3924      O3928   1.262       .  A
N3924      O3927   1.262       .  A
C3929      C3930   1.402       .  A
C3929      C3934   1.406       .  A
C3929      H3936   1.084       .  S
C3930      C3931   1.413       .  A
C3931      C3932   1.415       .  A
C3931      N3938   1.430       .  S
C3932      C3933   1.413       .  A
C3932      H3937   1.083       .  S
C3933      C3934   1.423       .  A
C3934      N3935   1.428       .  S
N3935      O3939   1.261       .  A
N3935      O3940   1.261       .  A
N3938      O3942   1.263       .  A
N3938      O3941   1.261       .  A
C3943      C3944   1.409       .  A
C3943      C3948   1.406       .  A
C3943      H3950   1.084       .  S
C3944      C3945   1.414       .  A
C3945      C3946   1.402       .  A
C3945      N3952   1.426       .  S
C3946      C3947   1.400       .  A
C3946      H3951   1.085       .  S
C3947      C3948   1.408       .  A
C3948      N3949   1.428       .  S
N3949      O3953   1.262       .  A
N3949      O3954   1.262       .  A
N3952      O3956   1.260       .  A
N3952      O3955   1.262       .  A
C3957      C3958   1.398       .  A
C3957      H3964   1.082       .  S
C3958      C3959   1.422       .  A
C3959      N3966   1.428       .  S
C3960      C3961   1.393       .  A
C3960      H3965   1.085       .  S
C3961      C3962   1.407       .  A
C3962      N3963   1.426       .  S
N3963      O3967   1.261       .  A
N3963      O3968   1.262       .  A
N3966      O3970   1.262       .  A
N3966      O3969   1.261       .  A
C3971      C3972   1.394       .  A
C3971      C3976   1.392       .  A
C3971      H3978   1.081       .  S
C3972      C3973   1.412       .  A
C3973      C3974   1.401       .  A
C3973      N3980   1.427       .  S
C3974      C3975   1.399       .  A
C3974      H3979   1.084       .  S
C3975      C3976   1.411       .  A
C3976      N3977   1.428       .  S
N3977      O3981   1.262       .  A
N3977      O3982   1.262       .  A
N3980      O3984   1.262       .  A
N3980      O3983   1.261       .  A
C3985      C3986   1.406       .  A
C3985      C3990   1.411       .  A
C3985      H3992   1.084       .  S
C3986      C3987   1.410       .  A
C3987      C3988   1.381       .  A
C3987      N3994   1.432       .  S
C3988      C3989   1.405       .  A
C3988      H3993   1.082       .  S
C3989      C3990   1.411       .  A
C3990      N3991   1.423       .  S
N3991      O3995   1.261       .  A
N3991      O3996   1.261       .  A
N3994      O3998   1.261       .  A
N3994      O3997   1.262       .  A
C3999      C4004   1.410       .  A
C3999      H4006   1.083       .  S
C4000      C4001   1.405   1_565  A
C4001      N4008   1.430       .  S
C4002      C4003   1.394       .  A
C4002      H4007   1.082       .  S
C4003      C4004   1.409       .  A
C4004      N4005   1.429       .  S
N4005      O4009   1.261       .  A
N4005      O4010   1.262       .  A
N4008      O4012   1.261   1_545  A
N4008      O4011   1.262       .  A
C4013      C4014   1.404       .  A
C4013      C4018   1.412       .  A
C4013      H4020   1.084       .  S
C4014      C4015   1.410       .  A
C4015      C4016   1.395       .  A
C4015      N4022   1.430       .  S
C4016      C4017   1.406       .  A
C4016      H4021   1.084       .  S
C4017      C4018   1.419       .  A
C4018      N4019   1.428       .  S
N4019      O4023   1.262       .  A
N4019      O4024   1.262       .  A
N4022      O4026   1.262       .  A
N4022      O4025   1.262       .  A
C4027      C4028   1.407       .  A
C4027      H4034   1.084       .  S
C4028      C4029   1.417   1_565  A
C4029      N4036   1.429       .  S
C4030      C4031   1.408   1_455  A
C4030      H4035   1.084       .  S
N4033      O4038   1.262       .  A
N4036      O4040   1.262       .  A
N4036      O4039   1.262       .  A
C4041      C4042   1.405       .  A
C4041      C4046   1.385       .  A
C4041      H4048   1.080       .  S
C4042      C4043   1.415       .  A
C4043      N4050   1.428       .  S
C4044      C4045   1.412       .  A
C4044      H4049   1.083       .  S
C4046      N4047   1.431       .  S
N4047      O4051   1.262       .  A
N4047      O4052   1.262   1_565  A
N4050      O4054   1.261       .  A
N4050      O4053   1.262       .  A
C4055      C4056   1.409       .  A
C4055      C4060   1.414       .  A
C4055      H4062   1.083       .  S
C4056      C4057   1.411       .  A
C4057      C4058   1.390       .  A
C4057      N4064   1.429       .  S
C4058      C4059   1.396       .  A
C4058      H4063   1.083       .  S
C4059      C4060   1.411       .  A
C4060      N4061   1.429       .  S
N4061      O4065   1.262       .  A
N4061      O4066   1.262       .  A
N4064      O4068   1.261       .  A
N4064      O4067   1.262       .  A
C4069      C4070   1.409       .  A
C4069      C4074   1.398       .  A
C4069      H4076   1.082       .  S
C4070      C4071   1.412       .  A
C4071      N4078   1.427       .  S
C4072      C4073   1.403       .  A
C4072      H4077   1.082       .  S
C4074      N4075   1.430       .  S
N4075      O4079   1.262       .  A
N4078      O4082   1.262       .  A
N4078      O4081   1.262       .  A
C4083      C4084   1.394       .  A
C4083      C4088   1.395       .  A
C4083      H4090   1.085       .  S
C4084      C4085   1.410       .  A
C4085      C4086   1.406       .  A
C4085      N4092   1.428       .  S
C4086      C4087   1.404       .  A
C4086      H4091   1.084       .  S
C4087      C4088   1.422       .  A
C4088      N4089   1.430       .  S
N4089      O4093   1.261       .  A
N4089      O4094   1.262       .  A
N4092      O4096   1.261       .  A
N4092      O4095   1.262       .  A
